version 2
run uniformServices-0-20171203-18:16:18-3704
attr configname uniformServices
attr datetime 20171203-18:16:18
attr experiment uniformServices
attr inifile omnetpp.ini
attr iterationvars ""
attr iterationvarsf ""
attr measurement ""
attr network Network
attr processid 3704
attr repetition 0
attr replication #0
attr resultdir results
attr runnumber 0
attr seedset 981839
param Network.*.uniformServ true
param Network.*.n 30
param Network.n 30
param Network.*.timeSlotPeriod 1ms
param Network.antenna.packetMeanIntTime 5ms

vector 0 Network.antenna user0queueSize:vector ETV
vector 1 Network.antenna user1queueSize:vector ETV
vector 2 Network.antenna user2queueSize:vector ETV
vector 3 Network.antenna user3queueSize:vector ETV
vector 4 Network.antenna user4queueSize:vector ETV
vector 5 Network.antenna user5queueSize:vector ETV
vector 6 Network.antenna user6queueSize:vector ETV
vector 7 Network.antenna user7queueSize:vector ETV
vector 8 Network.antenna user8queueSize:vector ETV
vector 9 Network.antenna user9queueSize:vector ETV
vector 10 Network.antenna user10queueSize:vector ETV
vector 11 Network.antenna user11queueSize:vector ETV
vector 12 Network.antenna user12queueSize:vector ETV
vector 13 Network.antenna user13queueSize:vector ETV
vector 14 Network.antenna user14queueSize:vector ETV
vector 15 Network.antenna user15queueSize:vector ETV
vector 16 Network.antenna user16queueSize:vector ETV
vector 17 Network.antenna user17queueSize:vector ETV
vector 18 Network.antenna user18queueSize:vector ETV
vector 19 Network.antenna user19queueSize:vector ETV
vector 20 Network.antenna user20queueSize:vector ETV
vector 21 Network.antenna user21queueSize:vector ETV
vector 22 Network.antenna user22queueSize:vector ETV
vector 23 Network.antenna user23queueSize:vector ETV
vector 24 Network.antenna user24queueSize:vector ETV
vector 25 Network.antenna user25queueSize:vector ETV
vector 26 Network.antenna user26queueSize:vector ETV
vector 27 Network.antenna user27queueSize:vector ETV
vector 28 Network.antenna user28queueSize:vector ETV
vector 29 Network.antenna user29queueSize:vector ETV
vector 30 Network.antenna throughput:vector ETV
attr title "Throughput, vector"
vector 31 Network.user[4] resp:vector ETV
attr title "responseTime, vector"
vector 32 Network.user[9] resp:vector ETV
attr title "responseTime, vector"
vector 33 Network.user[12] resp:vector ETV
attr title "responseTime, vector"
vector 34 Network.user[17] resp:vector ETV
attr title "responseTime, vector"
vector 35 Network.user[18] resp:vector ETV
attr title "responseTime, vector"
vector 36 Network.user[8] resp:vector ETV
attr title "responseTime, vector"
vector 37 Network.user[19] resp:vector ETV
attr title "responseTime, vector"
vector 38 Network.user[20] resp:vector ETV
attr title "responseTime, vector"
vector 39 Network.user[26] resp:vector ETV
attr title "responseTime, vector"
vector 40 Network.user[7] resp:vector ETV
attr title "responseTime, vector"
vector 41 Network.user[11] resp:vector ETV
attr title "responseTime, vector"
vector 42 Network.user[13] resp:vector ETV
attr title "responseTime, vector"
vector 43 Network.user[14] resp:vector ETV
attr title "responseTime, vector"
vector 44 Network.user[3] resp:vector ETV
attr title "responseTime, vector"
vector 45 Network.user[23] resp:vector ETV
attr title "responseTime, vector"
vector 46 Network.user[25] resp:vector ETV
attr title "responseTime, vector"
vector 47 Network.user[29] resp:vector ETV
attr title "responseTime, vector"
vector 48 Network.user[1] resp:vector ETV
attr title "responseTime, vector"
vector 49 Network.user[5] resp:vector ETV
attr title "responseTime, vector"
vector 50 Network.user[24] resp:vector ETV
attr title "responseTime, vector"
vector 51 Network.user[28] resp:vector ETV
attr title "responseTime, vector"
vector 52 Network.user[15] resp:vector ETV
attr title "responseTime, vector"
vector 53 Network.user[2] resp:vector ETV
attr title "responseTime, vector"
vector 54 Network.user[22] resp:vector ETV
attr title "responseTime, vector"
vector 55 Network.user[0] resp:vector ETV
attr title "responseTime, vector"
vector 56 Network.user[6] resp:vector ETV
attr title "responseTime, vector"
vector 57 Network.user[16] resp:vector ETV
attr title "responseTime, vector"
vector 58 Network.user[27] resp:vector ETV
attr title "responseTime, vector"
vector 59 Network.user[21] resp:vector ETV
attr title "responseTime, vector"
vector 60 Network.user[10] resp:vector ETV
attr title "responseTime, vector"
0	66	0.001	0
0	164	0.002	0
0	264	0.003	0
0	361	0.004	0
0	458	0.005	0
0	557	0.006	0
0	651	0.007	0
0	746	0.008	0
0	843	0.009	0
0	942	0.01	0
0	1038	0.011	0
0	1132	0.012	0
0	1229	0.013	1
0	1325	0.014	0
0	1425	0.015	0
0	1517	0.016	0
0	1612	0.017	0
0	1710	0.018	0
0	1807	0.019	0
0	1907	0.02	0
0	2005	0.021	0
0	2099	0.022	0
0	2196	0.023	0
0	2294	0.024	1
0	2392	0.025	0
0	2488	0.026	0
0	2579	0.027	0
0	2672	0.028	0
0	2765	0.029	0
0	2862	0.03	0
0	2964	0.031	0
0	3061	0.032	0
0	3162	0.033	0
0	3257	0.034	0
0	3358	0.035	1
0	3461	0.036	0
0	3559	0.037	0
0	3653	0.038	0
0	3748	0.039	0
0	3842	0.04	1
0	3941	0.041	0
0	4037	0.042	0
0	4135	0.043	1
0	4228	0.044	0
0	4326	0.045	0
0	4423	0.046	0
0	4521	0.047	0
0	4620	0.048	3
0	4715	0.049	0
0	4811	0.05	0
0	4907	0.051	0
0	5006	0.052	0
0	5101	0.053	0
0	5198	0.054	1
0	5294	0.055	0
0	5389	0.056	0
0	5487	0.057	1
0	5587	0.058	0
0	5688	0.059	0
0	5783	0.06	0
0	5883	0.061	1
0	5981	0.062	0
0	6078	0.063	0
0	6176	0.064	0
0	6271	0.065	0
0	6369	0.066	0
0	6466	0.067	0
0	6560	0.068	1
0	6655	0.069	1
0	6754	0.07	0
0	6848	0.071	0
0	6947	0.072	0
0	7045	0.073	0
0	7138	0.074	1
0	7235	0.075	0
0	7330	0.076	0
0	7427	0.077	0
0	7523	0.078	0
0	7623	0.079	0
0	7723	0.08	0
0	7827	0.081	0
0	7921	0.082	0
0	8022	0.083	1
0	8123	0.084	1
0	8219	0.085	0
0	8315	0.086	1
0	8412	0.087	0
0	8518	0.088	0
0	8611	0.089	1
0	8711	0.09	1
0	8809	0.091	0
0	8905	0.092	0
0	9000	0.093	0
0	9098	0.094	0
0	9194	0.095	0
0	9295	0.096	1
0	9386	0.097	0
0	9490	0.098	0
0	9586	0.099	1
0	9681	0.1	0
0	9776	0.101	0
0	9875	0.102	1
0	9971	0.103	0
0	10069	0.104	1
0	10166	0.105	0
0	10263	0.106	0
0	10359	0.107	0
0	10456	0.108	0
0	10553	0.109	1
0	10648	0.11	0
0	10742	0.111	0
0	10838	0.112	0
0	10934	0.113	0
0	11133	0.115	0
0	11229	0.116	0
0	11325	0.117	0
0	11520	0.119	0
0	11614	0.12	0
0	11716	0.121	0
0	11815	0.122	0
0	11909	0.123	0
0	12003	0.124	0
0	12099	0.125	0
0	12193	0.126	0
0	12291	0.127	0
0	12393	0.128	0
0	12490	0.129	0
0	12590	0.13	0
0	12693	0.131	0
0	12789	0.132	0
0	13076	0.135	0
0	13170	0.136	0
0	13264	0.137	0
0	13359	0.138	0
0	13561	0.14	0
0	13659	0.141	0
0	13759	0.142	0
0	13860	0.143	0
0	13955	0.144	0
0	14054	0.145	1
0	14158	0.146	0
0	14255	0.147	0
0	14350	0.148	0
0	14446	0.149	0
0	14541	0.15	0
0	14635	0.151	0
0	14733	0.152	1
0	14827	0.153	0
0	14923	0.154	0
0	15020	0.155	0
0	15117	0.156	0
0	15215	0.157	0
0	15311	0.158	0
0	15405	0.159	0
0	15502	0.16	0
0	15596	0.161	0
0	15692	0.162	0
0	15791	0.163	1
0	15887	0.164	0
0	15989	0.165	0
0	16089	0.166	1
0	16188	0.167	2
0	16285	0.168	0
0	16381	0.169	0
0	16477	0.17	0
0	16579	0.171	1
0	16677	0.172	1
0	16772	0.173	0
0	16864	0.174	0
0	16964	0.175	0
0	17064	0.176	0
0	17167	0.177	0
0	17265	0.178	2
0	17363	0.179	1
0	17461	0.18	1
0	17557	0.181	0
0	17652	0.182	0
0	17750	0.183	0
0	17846	0.184	2
0	17941	0.185	0
0	18034	0.186	0
0	18130	0.187	1
0	18228	0.188	1
0	18321	0.189	0
0	18419	0.19	0
0	18622	0.192	1
0	18716	0.193	0
0	18814	0.194	0
0	18910	0.195	1
0	19006	0.196	0
0	19102	0.197	0
0	19201	0.198	2
0	19301	0.199	0
0	19400	0.2	0
0	19496	0.201	0
0	19591	0.202	0
0	19688	0.203	0
0	19784	0.204	0
0	19880	0.205	0
0	19973	0.206	1
0	20075	0.207	3
0	20170	0.208	1
0	20271	0.209	0
0	20367	0.21	0
0	20465	0.211	0
0	20662	0.213	0
0	20758	0.214	0
0	20859	0.215	1
0	20960	0.216	0
0	21062	0.217	0
0	21159	0.218	0
0	21260	0.219	0
0	21357	0.22	0
0	21453	0.221	0
0	21553	0.222	0
0	21647	0.223	0
0	21747	0.224	0
0	21838	0.225	0
0	21934	0.226	0
0	22030	0.227	0
0	22130	0.228	0
0	22227	0.229	0
0	22326	0.23	1
0	22424	0.231	0
0	22519	0.232	0
0	22615	0.233	0
0	22710	0.234	0
0	22805	0.235	0
0	23102	0.238	1
0	23200	0.239	0
0	23301	0.24	0
0	23402	0.241	1
0	23498	0.242	1
0	23594	0.243	0
0	23693	0.244	0
0	23790	0.245	0
0	23891	0.246	0
0	23986	0.247	0
0	24084	0.248	0
0	24175	0.249	0
0	24270	0.25	0
0	24364	0.251	0
0	24461	0.252	0
0	24554	0.253	1
0	24646	0.254	0
0	24840	0.256	0
0	24941	0.257	0
0	25038	0.258	0
0	25134	0.259	0
0	25229	0.26	0
0	25328	0.261	0
0	25433	0.262	0
0	25530	0.263	0
0	25624	0.264	0
0	25719	0.265	0
0	25815	0.266	0
0	25910	0.267	0
0	26005	0.268	0
0	26104	0.269	0
0	26202	0.27	0
0	26299	0.271	0
0	26395	0.272	0
0	26491	0.273	0
0	26587	0.274	0
0	26680	0.275	0
0	26776	0.276	0
0	26873	0.277	0
0	26967	0.278	0
0	27065	0.279	0
0	27164	0.28	0
0	27264	0.281	1
0	27358	0.282	0
0	27453	0.283	0
0	27551	0.284	0
0	27646	0.285	0
0	27739	0.286	0
0	27836	0.287	1
0	27929	0.288	0
0	28026	0.289	0
0	28120	0.29	0
0	28214	0.291	0
0	28313	0.292	1
0	28410	0.293	0
0	28513	0.294	0
0	28614	0.295	1
0	28711	0.296	1
0	28807	0.297	0
0	28904	0.298	1
0	29000	0.299	0
0	29098	0.3	0
0	29195	0.301	0
0	29291	0.302	0
0	29389	0.303	0
0	29485	0.304	1
0	29582	0.305	0
0	29678	0.306	1
0	29773	0.307	0
0	29872	0.308	0
0	30066	0.31	1
0	30164	0.311	1
0	30366	0.313	0
0	30464	0.314	1
0	30561	0.315	0
0	30656	0.316	0
0	30751	0.317	0
0	30849	0.318	0
0	30945	0.319	1
0	31039	0.32	0
0	31143	0.321	0
0	31239	0.322	0
0	31341	0.323	0
0	31435	0.324	0
0	31530	0.325	0
0	31630	0.326	1
0	31726	0.327	0
0	31820	0.328	0
0	31918	0.329	1
0	32016	0.33	0
0	32116	0.331	0
0	32214	0.332	0
0	32309	0.333	0
0	32404	0.334	0
0	32505	0.335	0
0	32601	0.336	0
0	32697	0.337	0
0	32790	0.338	0
0	32889	0.339	0
0	32986	0.34	0
0	33082	0.341	0
0	33180	0.342	0
0	33278	0.343	0
0	33372	0.344	0
0	33468	0.345	0
0	33564	0.346	0
0	33658	0.347	0
0	33756	0.348	0
0	33855	0.349	0
0	33951	0.35	1
0	34047	0.351	0
0	34140	0.352	0
0	34235	0.353	0
0	34328	0.354	0
0	34424	0.355	1
0	34523	0.356	0
0	34616	0.357	0
0	34716	0.358	0
0	34812	0.359	0
0	34909	0.36	0
0	35008	0.361	0
0	35106	0.362	0
0	35205	0.363	2
0	35300	0.364	0
0	35400	0.365	1
0	35498	0.366	0
0	35593	0.367	1
0	35694	0.368	1
0	35789	0.369	1
0	35889	0.37	0
0	35986	0.371	0
0	36083	0.372	1
0	36183	0.373	1
0	36280	0.374	0
0	36381	0.375	0
0	36480	0.376	0
0	36581	0.377	0
0	36674	0.378	0
0	36769	0.379	0
0	36867	0.38	1
0	36963	0.381	0
0	37059	0.382	1
0	37155	0.383	0
0	37255	0.384	0
0	37350	0.385	1
0	37452	0.386	1
0	37548	0.387	1
0	37641	0.388	0
0	37736	0.389	0
0	37833	0.39	0
0	37930	0.391	1
0	38029	0.392	0
0	38127	0.393	0
0	38230	0.394	0
0	38325	0.395	0
0	38418	0.396	0
0	38514	0.397	0
0	38613	0.398	0
0	38710	0.399	0
0	38806	0.4	0
0	38903	0.401	0
0	39001	0.402	0
0	39100	0.403	0
0	39196	0.404	1
0	39296	0.405	0
0	39391	0.406	0
0	39485	0.407	0
0	39582	0.408	0
0	39680	0.409	0
0	39780	0.41	1
0	39875	0.411	1
0	39972	0.412	0
0	40068	0.413	2
0	40163	0.414	0
0	40257	0.415	0
0	40354	0.416	0
0	40452	0.417	1
0	40552	0.418	0
0	40745	0.42	0
0	40844	0.421	0
0	40940	0.422	0
0	41038	0.423	0
0	41135	0.424	0
0	41233	0.425	0
0	41327	0.426	0
0	41425	0.427	0
0	41522	0.428	0
0	41617	0.429	0
0	41717	0.43	0
0	41815	0.431	0
0	41915	0.432	0
0	42010	0.433	0
0	42107	0.434	1
0	42201	0.435	0
0	42298	0.436	0
0	42392	0.437	0
0	42492	0.438	0
0	42585	0.439	0
0	42683	0.44	0
0	42780	0.441	0
0	42876	0.442	0
0	42974	0.443	0
0	43071	0.444	0
0	43166	0.445	0
0	43263	0.446	0
0	43458	0.448	0
0	43555	0.449	1
0	43649	0.45	0
0	43743	0.451	0
0	43840	0.452	1
0	43943	0.453	0
0	44043	0.454	0
0	44146	0.455	0
0	44243	0.456	0
0	44340	0.457	0
0	44437	0.458	0
0	44537	0.459	0
0	44632	0.46	0
0	44729	0.461	0
0	44824	0.462	0
0	44920	0.463	0
0	45020	0.464	3
0	45120	0.465	0
0	45220	0.466	2
0	45316	0.467	0
0	45414	0.468	0
0	45512	0.469	0
0	45606	0.47	0
0	45707	0.471	0
0	45808	0.472	0
0	46004	0.474	0
0	46099	0.475	0
0	46196	0.476	0
0	46296	0.477	0
0	46392	0.478	0
0	46490	0.479	1
0	46585	0.48	1
0	46680	0.481	0
0	46782	0.482	0
0	46881	0.483	0
0	46979	0.484	0
0	47076	0.485	1
0	47170	0.486	0
0	47267	0.487	0
0	47366	0.488	0
0	47460	0.489	0
0	47558	0.49	0
0	47660	0.491	1
0	47758	0.492	1
0	47854	0.493	0
0	47949	0.494	0
0	48050	0.495	0
0	48146	0.496	0
0	48240	0.497	0
0	48339	0.498	1
0	48431	0.499	0
0	48527	0.5	0
0	48625	0.501	1
0	48720	0.502	0
0	48817	0.503	1
0	48909	0.504	0
0	49010	0.505	0
0	49108	0.506	0
0	49209	0.507	0
0	49301	0.508	0
0	49393	0.509	0
0	49490	0.51	0
0	49587	0.511	0
0	49778	0.513	0
0	49876	0.514	0
0	49969	0.515	1
0	50063	0.516	0
0	50157	0.517	0
0	50255	0.518	1
0	50354	0.519	1
0	50449	0.52	1
0	50546	0.521	0
0	50639	0.522	0
0	50738	0.523	2
0	50838	0.524	0
0	50935	0.525	0
0	51034	0.526	0
0	51128	0.527	0
0	51226	0.528	0
0	51322	0.529	0
0	51420	0.53	0
0	51516	0.531	0
0	51611	0.532	1
0	51710	0.533	0
0	51805	0.534	0
0	51903	0.535	0
0	51999	0.536	1
0	52096	0.537	0
0	52200	0.538	1
0	52296	0.539	0
0	52392	0.54	1
0	52488	0.541	1
0	52587	0.542	0
0	52781	0.544	0
0	52880	0.545	0
0	52975	0.546	0
0	53070	0.547	0
0	53167	0.548	0
0	53263	0.549	0
0	53361	0.55	0
0	53460	0.551	0
0	53557	0.552	0
0	53653	0.553	1
0	53747	0.554	0
0	53842	0.555	0
0	53938	0.556	0
0	54034	0.557	0
0	54225	0.559	0
0	54418	0.561	0
0	54515	0.562	0
0	54614	0.563	0
0	54712	0.564	0
0	54811	0.565	1
0	54911	0.566	0
0	55006	0.567	1
0	55101	0.568	0
0	55197	0.569	0
0	55297	0.57	0
0	55394	0.571	0
0	55494	0.572	1
0	55588	0.573	0
0	55686	0.574	0
0	55782	0.575	0
0	55882	0.576	0
0	55982	0.577	0
0	56083	0.578	0
0	56176	0.579	0
0	56372	0.581	0
0	56469	0.582	0
0	56563	0.583	0
0	56657	0.584	0
0	56756	0.585	1
0	56852	0.586	0
0	56951	0.587	1
0	57048	0.588	0
0	57142	0.589	0
0	57239	0.59	0
0	57337	0.591	0
0	57430	0.592	0
0	57528	0.593	0
0	57624	0.594	0
0	57720	0.595	0
0	57815	0.596	0
0	57911	0.597	0
0	58013	0.598	1
0	58111	0.599	0
0	58212	0.6	0
0	58307	0.601	0
0	58401	0.602	0
0	58503	0.603	0
0	58600	0.604	0
0	58697	0.605	1
0	58791	0.606	0
0	58889	0.607	0
0	58987	0.608	0
0	59084	0.609	0
0	59181	0.61	0
0	59277	0.611	0
0	59374	0.612	0
0	59469	0.613	1
0	59566	0.614	0
0	59665	0.615	0
0	59767	0.616	0
0	59863	0.617	1
0	59959	0.618	0
0	60053	0.619	0
0	60153	0.62	1
0	60250	0.621	0
0	60347	0.622	0
0	60440	0.623	0
0	60541	0.624	0
0	60634	0.625	0
0	60729	0.626	0
0	60824	0.627	0
0	60922	0.628	1
0	61017	0.629	0
0	61114	0.63	0
0	61209	0.631	0
0	61306	0.632	0
0	61400	0.633	0
0	61497	0.634	0
0	61595	0.635	0
0	61690	0.636	0
0	61787	0.637	1
0	61882	0.638	0
0	61980	0.639	1
0	62075	0.64	0
0	62174	0.641	0
0	62270	0.642	0
0	62366	0.643	0
0	62464	0.644	0
0	62559	0.645	0
0	62655	0.646	1
0	62747	0.647	0
0	62843	0.648	0
0	62940	0.649	0
0	63036	0.65	2
0	63129	0.651	0
0	63227	0.652	0
0	63325	0.653	0
0	63422	0.654	0
0	63520	0.655	1
0	63617	0.656	0
0	63713	0.657	0
0	63809	0.658	0
0	63907	0.659	0
0	64004	0.66	0
0	64100	0.661	0
0	64197	0.662	1
0	64299	0.663	0
0	64396	0.664	0
0	64492	0.665	0
0	64587	0.666	0
0	64682	0.667	0
0	64779	0.668	0
0	64877	0.669	0
0	64970	0.67	0
0	65070	0.671	1
0	65169	0.672	0
0	65269	0.673	1
0	65363	0.674	0
0	65461	0.675	0
0	65557	0.676	0
0	65651	0.677	0
0	65748	0.678	1
0	65842	0.679	0
0	65940	0.68	0
0	66037	0.681	0
0	66134	0.682	0
0	66227	0.683	0
0	66321	0.684	1
0	66417	0.685	1
0	66513	0.686	0
0	66612	0.687	0
0	66708	0.688	0
0	66807	0.689	0
0	66900	0.69	0
0	66995	0.691	0
0	67096	0.692	1
0	67190	0.693	1
0	67286	0.694	1
0	67380	0.695	0
0	67572	0.697	0
0	67668	0.698	0
0	67763	0.699	0
0	67858	0.7	0
0	67957	0.701	0
0	68055	0.702	0
0	68154	0.703	0
0	68251	0.704	1
0	68347	0.705	0
0	68442	0.706	0
0	68540	0.707	1
0	68636	0.708	0
0	68736	0.709	2
0	68833	0.71	0
0	68929	0.711	0
0	69024	0.712	0
0	69122	0.713	1
0	69311	0.715	1
0	69407	0.716	0
0	69505	0.717	0
0	69602	0.718	0
0	69699	0.719	0
0	69796	0.72	0
0	69894	0.721	0
0	69991	0.722	0
0	70087	0.723	0
0	70186	0.724	0
0	70284	0.725	0
0	70382	0.726	0
0	70481	0.727	0
0	70583	0.728	2
0	70679	0.729	1
0	70775	0.73	0
0	70875	0.731	1
0	70972	0.732	1
0	71070	0.733	1
0	71165	0.734	0
0	71262	0.735	0
0	71361	0.736	2
0	71456	0.737	0
0	71553	0.738	1
0	71649	0.739	0
0	71745	0.74	0
0	71842	0.741	1
0	71938	0.742	0
0	72037	0.743	1
0	72135	0.744	0
0	72233	0.745	0
0	72334	0.746	0
0	72432	0.747	1
0	72529	0.748	0
0	72623	0.749	0
0	72718	0.75	0
0	72817	0.751	0
0	72914	0.752	0
0	73104	0.754	0
0	73200	0.755	0
0	73299	0.756	1
0	73401	0.757	1
0	73498	0.758	0
0	73697	0.76	0
0	73894	0.762	1
0	73993	0.763	0
0	74092	0.764	0
0	74192	0.765	0
0	74292	0.766	1
0	74388	0.767	0
0	74481	0.768	0
0	74574	0.769	0
0	74672	0.77	0
0	74766	0.771	0
0	74860	0.772	0
0	74959	0.773	0
0	75155	0.775	0
0	75249	0.776	1
0	75345	0.777	1
0	75438	0.778	0
0	75531	0.779	0
0	75625	0.78	0
0	75723	0.781	0
0	75817	0.782	0
0	75912	0.783	0
0	76009	0.784	1
0	76107	0.785	0
0	76204	0.786	0
0	76298	0.787	0
0	76393	0.788	0
0	76488	0.789	0
0	76583	0.79	0
0	76682	0.791	0
0	76777	0.792	0
0	76970	0.794	2
0	77066	0.795	2
0	77172	0.796	0
0	77265	0.797	0
0	77365	0.798	0
0	77463	0.799	0
0	77562	0.8	0
0	77659	0.801	0
0	77756	0.802	0
0	77853	0.803	0
0	77948	0.804	0
0	78049	0.805	0
0	78148	0.806	0
0	78246	0.807	0
0	78340	0.808	0
0	78439	0.809	0
0	78535	0.81	0
0	78629	0.811	0
0	78725	0.812	0
0	78821	0.813	0
0	78916	0.814	0
0	79013	0.815	0
0	79111	0.816	0
0	79209	0.817	0
0	79305	0.818	1
0	79402	0.819	0
0	79496	0.82	0
0	79592	0.821	0
0	79685	0.822	0
0	79781	0.823	0
0	79877	0.824	0
0	79975	0.825	0
0	80074	0.826	0
0	80168	0.827	0
0	80264	0.828	0
0	80362	0.829	0
0	80459	0.83	0
0	80557	0.831	1
0	80654	0.832	0
0	80754	0.833	2
0	80849	0.834	0
0	81048	0.836	0
0	81148	0.837	1
0	81242	0.838	0
0	81337	0.839	0
0	81437	0.84	0
0	81535	0.841	0
0	81727	0.843	0
0	81824	0.844	1
0	81923	0.845	2
0	82017	0.846	0
0	82115	0.847	0
0	82214	0.848	0
0	82416	0.85	1
0	82516	0.851	2
0	82615	0.852	0
0	82715	0.853	0
0	82815	0.854	0
0	82909	0.855	0
0	83001	0.856	0
0	83102	0.857	0
0	83200	0.858	0
0	83295	0.859	0
0	83389	0.86	0
0	83486	0.861	0
0	83582	0.862	1
0	83674	0.863	0
0	83769	0.864	0
0	83867	0.865	0
0	83961	0.866	0
0	84056	0.867	0
0	84150	0.868	0
0	84246	0.869	1
0	84341	0.87	1
0	84440	0.871	1
0	84539	0.872	1
0	84635	0.873	2
0	84732	0.874	2
0	84826	0.875	0
0	85022	0.877	1
0	85115	0.878	0
0	85209	0.879	0
0	85308	0.88	0
0	85404	0.881	0
0	85499	0.882	0
0	85605	0.883	1
0	85701	0.884	1
0	85799	0.885	0
0	85897	0.886	0
0	85989	0.887	0
0	86092	0.888	1
0	86193	0.889	0
0	86292	0.89	1
0	86392	0.891	0
0	86491	0.892	1
0	86588	0.893	0
0	86682	0.894	0
0	86780	0.895	1
0	86873	0.896	0
0	86967	0.897	0
0	87063	0.898	0
0	87158	0.899	0
0	87259	0.9	0
0	87358	0.901	0
0	87454	0.902	0
0	87549	0.903	0
0	87649	0.904	0
0	87747	0.905	0
0	87840	0.906	0
0	87938	0.907	0
0	88039	0.908	0
0	88136	0.909	0
0	88235	0.91	0
0	88427	0.912	0
0	88527	0.913	0
0	88624	0.914	0
0	88718	0.915	0
0	88813	0.916	0
0	88910	0.917	0
0	89006	0.918	0
0	89106	0.919	0
0	89204	0.92	1
0	89300	0.921	0
0	89399	0.922	0
0	89491	0.923	0
0	89593	0.924	0
0	89688	0.925	0
0	89784	0.926	0
0	89880	0.927	0
0	89977	0.928	1
0	90077	0.929	0
0	90173	0.93	0
0	90270	0.931	0
0	90367	0.932	0
0	90464	0.933	1
0	90562	0.934	0
0	90662	0.935	0
0	90759	0.936	0
0	90854	0.937	0
0	90952	0.938	0
0	91045	0.939	0
0	91142	0.94	1
0	91238	0.941	1
0	91338	0.942	0
0	91433	0.943	1
0	91527	0.944	0
0	91717	0.946	0
0	91811	0.947	0
0	91908	0.948	1
0	92002	0.949	0
0	92095	0.95	0
0	92192	0.951	0
0	92289	0.952	1
0	92390	0.953	0
0	92484	0.954	0
0	92580	0.955	0
0	92675	0.956	0
0	92774	0.957	0
0	92870	0.958	0
0	92967	0.959	0
0	93067	0.96	0
0	93164	0.961	0
0	93258	0.962	0
0	93352	0.963	1
0	93449	0.964	0
0	93548	0.965	1
0	93641	0.966	0
0	93737	0.967	0
0	93831	0.968	0
0	93931	0.969	1
0	94026	0.97	0
0	94124	0.971	0
0	94217	0.972	0
0	94319	0.973	0
0	94533	0.975	3
0	94635	0.976	1
0	94731	0.977	0
0	94827	0.978	0
0	94928	0.979	0
0	95024	0.98	0
0	95214	0.982	0
0	95503	0.985	2
0	95603	0.986	1
0	95698	0.987	0
0	95796	0.988	0
0	95893	0.989	0
0	95985	0.99	0
0	96083	0.991	0
0	96177	0.992	0
0	96274	0.993	0
0	96371	0.994	0
0	96465	0.995	0
0	96564	0.996	0
0	96661	0.997	0
0	96760	0.998	0
0	96857	0.999	1
0	96952	1	0
0	97047	1.001	0
0	97141	1.002	0
0	97242	1.003	3
0	97339	1.004	0
0	97438	1.005	1
0	97537	1.006	0
0	97630	1.007	0
0	97726	1.008	1
0	97820	1.009	0
0	97918	1.01	1
0	98015	1.011	0
0	98114	1.012	0
0	98209	1.013	0
0	98305	1.014	0
0	98406	1.015	0
0	98502	1.016	0
0	98600	1.017	0
0	98696	1.018	1
0	98796	1.019	1
0	98892	1.02	0
0	98988	1.021	0
0	99080	1.022	0
0	99177	1.023	0
0	99371	1.025	0
0	99470	1.026	0
0	99566	1.027	0
0	99663	1.028	2
0	99762	1.029	0
0	99859	1.03	0
0	99954	1.031	0
0	100052	1.032	1
0	100145	1.033	0
0	100345	1.035	1
0	100440	1.036	0
0	100542	1.037	0
0	100639	1.038	0
0	100740	1.039	0
0	100839	1.04	0
0	101033	1.042	1
0	101125	1.043	0
0	101224	1.044	0
0	101322	1.045	0
0	101423	1.046	0
0	101517	1.047	0
0	101617	1.048	0
0	101715	1.049	0
0	101812	1.05	0
0	101915	1.051	0
0	102010	1.052	0
0	102105	1.053	0
0	102205	1.054	0
0	102401	1.056	0
0	102494	1.057	0
0	102592	1.058	0
0	102688	1.059	0
0	102885	1.061	0
0	102981	1.062	0
0	103077	1.063	0
0	103171	1.064	0
0	103263	1.065	0
0	103365	1.066	1
0	103463	1.067	0
0	103558	1.068	1
0	103657	1.069	0
0	103753	1.07	0
0	103951	1.072	0
0	104045	1.073	0
0	104139	1.074	0
0	104242	1.075	0
0	104337	1.076	0
0	104435	1.077	0
0	104533	1.078	0
0	104629	1.079	0
0	104723	1.08	0
0	104823	1.081	0
0	104921	1.082	0
0	105023	1.083	0
0	105118	1.084	0
0	105213	1.085	0
0	105308	1.086	2
0	105406	1.087	2
0	105506	1.088	1
0	105605	1.089	1
0	105702	1.09	0
0	105798	1.091	0
0	105894	1.092	0
0	105994	1.093	0
0	106087	1.094	0
0	106290	1.096	1
0	106388	1.097	0
0	106583	1.099	0
0	106680	1.1	0
0	106775	1.101	0
0	106874	1.102	1
0	106969	1.103	1
0	107161	1.105	2
0	107257	1.106	0
0	107355	1.107	0
0	107456	1.108	0
0	107555	1.109	0
0	107652	1.11	0
0	107748	1.111	0
0	107846	1.112	1
0	107941	1.113	0
0	108036	1.114	0
0	108132	1.115	0
0	108234	1.116	0
0	108331	1.117	0
0	108425	1.118	0
0	108520	1.119	0
0	108617	1.12	0
0	108717	1.121	0
0	108819	1.122	0
0	108915	1.123	0
0	109015	1.124	0
0	109110	1.125	0
0	109204	1.126	0
0	109303	1.127	0
0	109500	1.129	2
0	109595	1.13	2
0	109690	1.131	0
0	109789	1.132	0
0	109886	1.133	2
0	109980	1.134	0
0	110076	1.135	1
0	110173	1.136	0
0	110268	1.137	1
0	110363	1.138	0
0	110461	1.139	0
0	110559	1.14	0
0	110760	1.142	1
0	110862	1.143	2
0	110964	1.144	1
0	111059	1.145	1
0	111158	1.146	0
0	111257	1.147	1
0	111362	1.148	0
0	111459	1.149	0
0	111557	1.15	0
0	111656	1.151	0
0	111754	1.152	0
0	111853	1.153	1
0	111951	1.154	0
0	112048	1.155	0
0	112141	1.156	0
0	112237	1.157	0
0	112335	1.158	0
0	112429	1.159	0
0	112522	1.16	0
0	112625	1.161	0
0	112720	1.162	0
0	112817	1.163	0
0	112913	1.164	0
0	113011	1.165	0
0	113107	1.166	0
0	113206	1.167	0
0	113304	1.168	0
0	113402	1.169	0
0	113496	1.17	0
0	113595	1.171	0
0	113691	1.172	0
0	113788	1.173	1
0	113883	1.174	0
0	113983	1.175	0
0	114078	1.176	1
0	114173	1.177	0
0	114269	1.178	0
0	114364	1.179	1
0	114462	1.18	0
0	114557	1.181	1
0	114751	1.183	0
0	114851	1.184	0
0	114947	1.185	0
0	115045	1.186	1
0	115139	1.187	0
0	115235	1.188	0
0	115332	1.189	0
0	115429	1.19	1
0	115528	1.191	0
0	115625	1.192	0
0	115719	1.193	0
0	115816	1.194	1
0	115914	1.195	0
0	116110	1.197	0
0	116206	1.198	0
0	116302	1.199	1
0	116405	1.2	0
0	116499	1.201	0
0	116593	1.202	0
0	116693	1.203	1
0	116789	1.204	1
0	116885	1.205	0
0	116981	1.206	0
0	117078	1.207	0
0	117175	1.208	0
0	117271	1.209	0
0	117466	1.211	0
0	117561	1.212	0
0	117658	1.213	0
0	117754	1.214	0
0	117852	1.215	0
0	117949	1.216	1
0	118045	1.217	0
0	118142	1.218	1
0	118238	1.219	0
0	118332	1.22	0
0	118432	1.221	0
0	118529	1.222	2
0	118627	1.223	2
0	118722	1.224	1
0	118821	1.225	0
0	118914	1.226	0
0	119011	1.227	0
0	119110	1.228	0
0	119201	1.229	0
0	119294	1.23	0
0	119399	1.231	0
0	119494	1.232	0
0	119592	1.233	1
0	119687	1.234	1
0	119789	1.235	0
0	119885	1.236	0
0	119981	1.237	1
0	120078	1.238	0
0	120271	1.24	0
0	120368	1.241	0
0	120466	1.242	0
0	120566	1.243	1
0	120664	1.244	2
0	120759	1.245	0
0	120952	1.247	1
0	121052	1.248	1
0	121250	1.25	0
0	121355	1.251	0
0	121552	1.253	0
0	121650	1.254	0
0	121745	1.255	0
0	121844	1.256	1
0	121939	1.257	0
0	122036	1.258	0
0	122228	1.26	0
0	122328	1.261	0
0	122423	1.262	0
0	122522	1.263	0
0	122617	1.264	0
0	122713	1.265	0
0	122811	1.266	0
0	122910	1.267	0
0	123008	1.268	0
0	123104	1.269	0
0	123202	1.27	0
0	123299	1.271	0
0	123394	1.272	1
0	123496	1.273	1
0	123593	1.274	0
0	123685	1.275	0
0	123779	1.276	0
0	123878	1.277	2
0	123973	1.278	1
0	124068	1.279	0
0	124165	1.28	0
0	124259	1.281	0
0	124451	1.283	0
0	124549	1.284	0
0	124648	1.285	0
0	124747	1.286	0
0	124845	1.287	0
0	124941	1.288	0
0	125038	1.289	0
0	125233	1.291	0
0	125328	1.292	0
0	125428	1.293	0
0	125528	1.294	0
0	125623	1.295	0
0	125721	1.296	0
0	125815	1.297	0
0	125910	1.298	0
0	126402	1.303	2
0	126595	1.305	0
0	126786	1.307	1
0	126885	1.308	0
0	126980	1.309	0
0	127074	1.31	0
0	127172	1.311	0
0	127267	1.312	1
0	127462	1.314	0
0	127559	1.315	0
0	127657	1.316	0
0	127754	1.317	0
0	127856	1.318	0
0	127954	1.319	0
0	128052	1.32	0
0	128147	1.321	0
0	128243	1.322	0
0	128344	1.323	0
0	128441	1.324	0
0	128632	1.326	1
0	128726	1.327	0
0	128823	1.328	1
0	128919	1.329	0
0	129018	1.33	0
0	129111	1.331	0
0	129213	1.332	1
0	129309	1.333	1
0	129411	1.334	1
0	129509	1.335	0
0	129605	1.336	0
0	129702	1.337	0
0	129800	1.338	0
0	129896	1.339	0
0	129988	1.34	0
0	130085	1.341	1
0	130181	1.342	0
0	130276	1.343	1
0	130373	1.344	1
0	130473	1.345	0
0	130569	1.346	0
0	130660	1.347	0
0	130752	1.348	0
0	130846	1.349	0
0	130943	1.35	0
0	131138	1.352	1
0	131235	1.353	1
0	131332	1.354	0
0	131428	1.355	0
0	131523	1.356	0
0	131715	1.358	0
0	131812	1.359	0
0	131910	1.36	0
0	132006	1.361	0
0	132111	1.362	0
0	132207	1.363	1
0	132304	1.364	2
0	132401	1.365	0
0	132498	1.366	0
0	132596	1.367	0
0	132692	1.368	1
0	132790	1.369	0
0	132884	1.37	0
0	132981	1.371	0
0	133077	1.372	0
0	133272	1.374	0
0	133371	1.375	1
0	133465	1.376	1
0	133558	1.377	0
0	133654	1.378	1
0	133747	1.379	0
0	133841	1.38	0
0	133935	1.381	0
0	134033	1.382	0
0	134125	1.383	0
0	134414	1.386	0
0	134515	1.387	0
0	134615	1.388	0
0	134714	1.389	0
0	134906	1.391	0
0	135002	1.392	1
0	135193	1.394	1
0	135289	1.395	0
0	135489	1.397	0
0	135586	1.398	1
0	135680	1.399	0
0	135874	1.401	0
0	135973	1.402	0
0	136068	1.403	0
0	136167	1.404	1
0	136264	1.405	0
0	136360	1.406	1
0	136458	1.407	0
0	136556	1.408	0
0	136753	1.41	0
0	136946	1.412	1
0	137042	1.413	0
0	137138	1.414	1
0	137230	1.415	0
0	137327	1.416	0
0	137423	1.417	0
0	137517	1.418	0
0	137615	1.419	1
0	137713	1.42	1
0	137809	1.421	0
0	138111	1.424	0
0	138204	1.425	0
0	138297	1.426	1
0	138393	1.427	0
0	138489	1.428	0
0	138587	1.429	0
0	138686	1.43	0
0	138779	1.431	0
0	138874	1.432	0
0	138968	1.433	0
0	139065	1.434	0
0	139160	1.435	0
0	139255	1.436	0
0	139348	1.437	0
0	139449	1.438	1
0	139546	1.439	0
0	139648	1.44	0
0	139744	1.441	0
0	139842	1.442	0
0	139934	1.443	0
0	140033	1.444	1
0	140129	1.445	0
0	140225	1.446	0
0	140322	1.447	1
0	140415	1.448	1
0	140511	1.449	0
0	140604	1.45	1
0	140701	1.451	0
0	140798	1.452	0
0	140899	1.453	0
0	140997	1.454	0
0	141091	1.455	0
0	141185	1.456	0
0	141281	1.457	0
0	141577	1.46	0
0	141679	1.461	0
0	141780	1.462	0
0	141876	1.463	0
0	141975	1.464	0
0	142168	1.466	0
0	142264	1.467	0
0	142360	1.468	0
0	142455	1.469	0
0	142555	1.47	0
0	142651	1.471	0
0	142751	1.472	0
0	142847	1.473	0
0	142944	1.474	0
0	143042	1.475	0
0	143141	1.476	0
0	143238	1.477	0
0	143335	1.478	0
0	143430	1.479	0
0	143525	1.48	0
0	143629	1.481	0
0	143724	1.482	0
0	143819	1.483	0
0	143913	1.484	0
0	144014	1.485	0
0	144111	1.486	0
0	144208	1.487	0
0	144302	1.488	0
0	144401	1.489	0
0	144495	1.49	0
0	144595	1.491	0
0	144689	1.492	0
0	144783	1.493	1
0	144882	1.494	0
0	144981	1.495	0
0	145079	1.496	0
0	145180	1.497	0
0	145276	1.498	1
0	145372	1.499	0
0	145468	1.5	0
0	145570	1.501	0
0	145666	1.502	0
0	145759	1.503	1
0	145853	1.504	0
0	145948	1.505	0
0	146044	1.506	1
0	146143	1.507	0
0	146243	1.508	1
0	146336	1.509	0
0	146435	1.51	1
0	146531	1.511	1
0	146632	1.512	1
0	146727	1.513	0
0	146828	1.514	0
0	146927	1.515	0
0	147117	1.517	0
0	147212	1.518	1
0	147307	1.519	0
0	147407	1.52	0
0	147501	1.521	0
0	147598	1.522	1
0	147696	1.523	0
0	147791	1.524	0
0	147890	1.525	1
0	147985	1.526	0
0	148081	1.527	1
0	148179	1.528	0
0	148276	1.529	0
0	148373	1.53	0
0	148470	1.531	1
0	148563	1.532	0
0	148660	1.533	0
0	148756	1.534	0
0	148849	1.535	0
0	148949	1.536	0
0	149046	1.537	0
0	149142	1.538	0
0	149440	1.541	2
0	149537	1.542	2
0	149635	1.543	0
0	149730	1.544	1
0	149824	1.545	0
0	149918	1.546	0
0	150015	1.547	0
0	150110	1.548	2
0	150208	1.549	0
0	150303	1.55	0
0	150498	1.552	0
0	150594	1.553	0
0	150690	1.554	1
0	150785	1.555	0
0	150882	1.556	0
0	151079	1.558	0
0	151177	1.559	0
0	151272	1.56	0
0	151368	1.561	1
0	151464	1.562	0
0	151560	1.563	0
0	151654	1.564	0
0	151756	1.565	0
0	151852	1.566	0
0	151949	1.567	0
0	152049	1.568	1
0	152152	1.569	1
0	152249	1.57	1
0	152347	1.571	0
0	152447	1.572	0
0	152543	1.573	0
0	152643	1.574	0
0	152739	1.575	0
0	152840	1.576	1
0	152931	1.577	0
0	153029	1.578	0
0	153127	1.579	0
0	153226	1.58	0
0	153326	1.581	1
0	153426	1.582	0
0	153525	1.583	0
0	153625	1.584	0
0	153724	1.585	0
0	153820	1.586	0
0	153915	1.587	0
0	154009	1.588	0
0	154104	1.589	0
0	154203	1.59	0
0	154300	1.591	0
0	154396	1.592	0
0	154499	1.593	0
0	154594	1.594	0
0	154691	1.595	0
0	154788	1.596	0
0	154987	1.598	0
0	155084	1.599	1
0	155181	1.6	0
0	155278	1.601	0
0	155377	1.602	0
0	155470	1.603	0
0	155667	1.605	0
0	155764	1.606	0
0	155868	1.607	1
0	156065	1.609	0
0	156158	1.61	1
0	156253	1.611	1
0	156350	1.612	1
0	156446	1.613	0
0	156548	1.614	1
0	156644	1.615	2
0	156738	1.616	0
0	156834	1.617	0
0	156931	1.618	0
0	157027	1.619	1
0	157120	1.62	0
0	157314	1.622	0
0	157409	1.623	0
0	157506	1.624	0
0	157599	1.625	0
0	157692	1.626	0
0	157885	1.628	0
0	157984	1.629	1
0	158084	1.63	0
0	158183	1.631	0
0	158279	1.632	0
0	158378	1.633	0
0	158477	1.634	0
0	158571	1.635	0
0	158667	1.636	0
0	158766	1.637	0
0	158962	1.639	0
0	159059	1.64	0
0	159156	1.641	0
0	159251	1.642	0
0	159449	1.644	1
0	159545	1.645	0
0	159640	1.646	0
0	159737	1.647	0
0	159833	1.648	1
0	159929	1.649	2
0	160024	1.65	0
0	160124	1.651	0
0	160326	1.653	0
0	160527	1.655	0
0	160624	1.656	0
0	160717	1.657	0
0	160812	1.658	1
0	160908	1.659	0
0	161002	1.66	0
0	161095	1.661	0
0	161190	1.662	0
0	161286	1.663	2
0	161383	1.664	0
0	161581	1.666	2
0	161680	1.667	0
0	161776	1.668	0
0	161879	1.669	1
0	161975	1.67	0
0	162069	1.671	0
0	162166	1.672	0
0	162266	1.673	1
0	162363	1.674	0
0	162460	1.675	0
0	162559	1.676	0
0	162749	1.678	0
0	162848	1.679	0
0	162942	1.68	1
0	163037	1.681	0
0	163132	1.682	1
0	163226	1.683	0
0	163320	1.684	0
0	163416	1.685	0
0	163512	1.686	0
0	163609	1.687	0
0	163706	1.688	0
0	163803	1.689	1
0	163899	1.69	1
0	163998	1.691	0
0	164098	1.692	0
0	164197	1.693	1
0	164291	1.694	0
0	164383	1.695	0
0	164478	1.696	1
0	164576	1.697	0
0	164672	1.698	0
0	164769	1.699	0
0	164867	1.7	0
0	164962	1.701	0
0	165061	1.702	0
0	165157	1.703	1
0	165255	1.704	0
0	165350	1.705	0
0	165445	1.706	0
0	165543	1.707	1
0	165644	1.708	0
0	165741	1.709	0
0	165836	1.71	0
0	165931	1.711	0
0	166032	1.712	0
0	166126	1.713	0
0	166223	1.714	0
0	166321	1.715	1
0	166422	1.716	0
0	166519	1.717	1
0	166615	1.718	0
0	166710	1.719	0
0	166805	1.72	0
0	166905	1.721	1
0	167005	1.722	1
0	167103	1.723	0
0	167201	1.724	2
0	167300	1.725	1
0	167395	1.726	0
0	167490	1.727	0
0	167585	1.728	0
0	167683	1.729	0
0	167778	1.73	0
0	167875	1.731	0
0	168170	1.734	0
0	168263	1.735	0
0	168360	1.736	0
0	168455	1.737	1
0	168551	1.738	0
0	168650	1.739	0
0	168748	1.74	0
0	168845	1.741	0
0	168943	1.742	0
0	169043	1.743	0
0	169141	1.744	0
0	169241	1.745	0
0	169339	1.746	0
0	169438	1.747	0
0	169536	1.748	0
0	169631	1.749	0
0	169726	1.75	0
0	169825	1.751	1
0	169924	1.752	0
0	170017	1.753	0
0	170215	1.755	0
0	170314	1.756	0
0	170417	1.757	0
0	170512	1.758	0
0	170607	1.759	0
0	170701	1.76	0
0	170797	1.761	1
0	170999	1.763	1
0	171097	1.764	0
0	171194	1.765	0
0	171291	1.766	0
0	171388	1.767	1
0	171484	1.768	1
0	171582	1.769	0
0	171676	1.77	0
0	171772	1.771	0
0	171865	1.772	0
0	171958	1.773	0
0	172056	1.774	0
0	172152	1.775	0
0	172254	1.776	1
0	172353	1.777	0
0	172548	1.779	1
0	172650	1.78	0
0	172749	1.781	0
0	172948	1.783	1
0	173046	1.784	0
0	173142	1.785	0
0	173243	1.786	0
0	173337	1.787	0
0	173434	1.788	0
0	173528	1.789	0
0	173728	1.791	0
0	173827	1.792	0
0	173924	1.793	0
0	174025	1.794	1
0	174123	1.795	0
0	174218	1.796	1
0	174312	1.797	0
0	174407	1.798	0
0	174504	1.799	0
0	174602	1.8	0
0	174700	1.801	0
0	174801	1.802	2
0	174900	1.803	0
0	174994	1.804	0
0	175092	1.805	0
0	175192	1.806	0
0	175289	1.807	1
0	175386	1.808	0
0	175488	1.809	0
0	175586	1.81	0
0	175779	1.812	1
0	175874	1.813	1
0	175969	1.814	1
0	176065	1.815	0
0	176160	1.816	0
0	176255	1.817	0
0	176353	1.818	0
0	176448	1.819	0
0	176550	1.82	0
0	176649	1.821	0
0	176744	1.822	0
0	176939	1.824	2
0	177040	1.825	0
0	177136	1.826	0
0	177232	1.827	1
0	177425	1.829	1
0	177523	1.83	0
0	177724	1.832	0
0	177820	1.833	0
0	177919	1.834	1
0	178019	1.835	0
0	178118	1.836	0
0	178218	1.837	0
0	178313	1.838	0
0	178407	1.839	0
0	178503	1.84	0
0	178600	1.841	1
0	178695	1.842	0
0	178792	1.843	0
0	178889	1.844	1
0	178987	1.845	0
0	179085	1.846	0
0	179179	1.847	0
0	179276	1.848	0
0	179377	1.849	0
0	179470	1.85	0
0	179569	1.851	0
0	179764	1.853	1
0	179864	1.854	0
0	179958	1.855	0
0	180055	1.856	1
0	180155	1.857	0
0	180352	1.859	2
0	180452	1.86	0
0	180549	1.861	0
0	180744	1.863	1
0	180840	1.864	0
0	180935	1.865	0
0	181033	1.866	0
0	181129	1.867	0
0	181227	1.868	0
0	181324	1.869	0
0	181419	1.87	0
0	181513	1.871	0
0	181610	1.872	1
0	181709	1.873	0
0	181805	1.874	0
0	181906	1.875	0
0	182005	1.876	2
0	182099	1.877	0
0	182288	1.879	0
0	182385	1.88	0
0	182482	1.881	0
0	182578	1.882	0
0	182674	1.883	0
0	182773	1.884	0
0	182966	1.886	0
0	183061	1.887	0
0	183154	1.888	0
0	183249	1.889	0
0	183345	1.89	0
0	183441	1.891	1
0	183539	1.892	0
0	183637	1.893	0
0	183733	1.894	1
0	183832	1.895	0
0	183930	1.896	1
0	184032	1.897	1
0	184128	1.898	2
0	184227	1.899	0
0	184324	1.9	0
0	184421	1.901	0
0	184618	1.903	0
0	184720	1.904	1
0	184816	1.905	0
0	184913	1.906	1
0	185007	1.907	0
0	185101	1.908	0
0	185202	1.909	0
0	185298	1.91	1
0	185395	1.911	1
0	185487	1.912	0
0	185583	1.913	0
0	185682	1.914	0
0	185975	1.917	0
0	186071	1.918	0
0	186168	1.919	0
0	186263	1.92	0
0	186357	1.921	0
0	186456	1.922	0
0	186553	1.923	0
0	186650	1.924	0
0	186746	1.925	0
0	186843	1.926	0
0	186940	1.927	0
0	187037	1.928	1
0	187138	1.929	0
0	187233	1.93	0
0	187332	1.931	0
0	187428	1.932	0
0	187522	1.933	0
0	187617	1.934	1
0	187719	1.935	0
0	187815	1.936	0
0	187912	1.937	0
0	188009	1.938	0
0	188105	1.939	0
0	188198	1.94	0
0	188298	1.941	0
0	188396	1.942	0
0	188497	1.943	0
0	188592	1.944	0
0	188689	1.945	0
0	188787	1.946	0
0	188883	1.947	0
0	188983	1.948	1
0	189077	1.949	1
0	189173	1.95	0
0	189270	1.951	0
0	189366	1.952	0
0	189464	1.953	0
0	189562	1.954	0
0	189656	1.955	0
0	189753	1.956	0
0	189854	1.957	0
0	189950	1.958	0
0	190051	1.959	0
0	190152	1.96	1
0	190247	1.961	1
0	190341	1.962	0
0	190441	1.963	0
0	190537	1.964	0
0	190631	1.965	0
0	190729	1.966	0
0	191119	1.97	1
0	191212	1.971	0
0	191309	1.972	0
0	191404	1.973	0
0	191503	1.974	0
0	191602	1.975	0
0	191697	1.976	0
0	191793	1.977	1
0	191887	1.978	0
0	191985	1.979	0
0	192180	1.981	2
0	192278	1.982	0
0	192471	1.984	2
0	192565	1.985	0
0	192660	1.986	0
0	192758	1.987	0
0	192856	1.988	0
0	192953	1.989	0
0	193052	1.99	0
0	193151	1.991	0
0	193244	1.992	0
0	193342	1.993	0
0	193538	1.995	0
0	193632	1.996	0
0	193731	1.997	0
0	193831	1.998	1
0	193930	1.999	0
0	194027	2	0
0	194121	2.001	0
0	194220	2.002	0
0	194317	2.003	0
0	194415	2.004	0
0	194519	2.005	1
0	194619	2.006	1
0	194715	2.007	0
0	194814	2.008	0
0	194911	2.009	0
0	195103	2.011	0
0	195198	2.012	0
0	195296	2.013	0
0	195394	2.014	0
0	195496	2.015	0
0	195592	2.016	0
0	195688	2.017	0
0	195780	2.018	0
0	195876	2.019	1
0	195974	2.02	0
0	196071	2.021	0
0	196167	2.022	0
0	196265	2.023	1
0	196358	2.024	0
0	196453	2.025	0
0	196551	2.026	0
0	196647	2.027	0
0	196744	2.028	0
0	196842	2.029	1
0	196938	2.03	0
0	197036	2.031	1
0	197134	2.032	2
0	197239	2.033	0
0	197334	2.034	0
0	197430	2.035	0
0	197525	2.036	0
0	197623	2.037	0
0	197723	2.038	0
0	197920	2.04	0
0	198012	2.041	0
0	198110	2.042	1
0	198206	2.043	0
0	198304	2.044	2
0	198400	2.045	0
0	198497	2.046	0
0	198592	2.047	0
0	198689	2.048	0
0	198783	2.049	0
0	198878	2.05	0
0	198975	2.051	0
0	199070	2.052	0
0	199167	2.053	0
0	199269	2.054	0
0	199560	2.057	0
0	199655	2.058	0
0	199753	2.059	0
0	199849	2.06	0
0	199946	2.061	0
0	200043	2.062	0
0	200142	2.063	0
0	200238	2.064	0
0	200335	2.065	1
0	200433	2.066	1
0	200529	2.067	0
0	200625	2.068	1
0	200723	2.069	0
0	200823	2.07	0
0	200919	2.071	0
0	201019	2.072	0
0	201113	2.073	0
0	201311	2.075	0
0	201406	2.076	0
0	201606	2.078	2
0	201702	2.079	0
0	201800	2.08	2
0	201897	2.081	0
0	201993	2.082	0
0	202089	2.083	0
0	202188	2.084	0
0	202288	2.085	0
0	202388	2.086	0
0	202481	2.087	0
0	202578	2.088	0
0	202676	2.089	0
0	202772	2.09	0
0	202869	2.091	2
0	202965	2.092	2
0	203065	2.093	0
0	203166	2.094	0
0	203359	2.096	1
0	203456	2.097	0
0	203553	2.098	0
0	203651	2.099	0
0	203748	2.1	0
0	203846	2.101	0
0	204047	2.103	0
0	204141	2.104	0
0	204238	2.105	0
0	204332	2.106	0
0	204430	2.107	0
0	204527	2.108	2
0	204628	2.109	2
0	204721	2.11	1
0	204816	2.111	0
0	204915	2.112	1
0	205012	2.113	2
0	205108	2.114	2
0	205205	2.115	1
0	205300	2.116	0
0	205395	2.117	0
0	205492	2.118	0
0	205590	2.119	3
0	205687	2.12	1
0	205783	2.121	0
0	205878	2.122	0
0	205974	2.123	0
0	206067	2.124	0
0	206168	2.125	0
0	206261	2.126	0
0	206357	2.127	1
0	206454	2.128	0
0	206556	2.129	0
0	206755	2.131	0
0	206851	2.132	0
0	206945	2.133	0
0	207049	2.134	1
0	207147	2.135	1
0	207243	2.136	0
0	207343	2.137	0
0	207439	2.138	0
0	207532	2.139	0
0	207633	2.14	0
0	207731	2.141	1
0	207826	2.142	0
0	207920	2.143	0
0	208019	2.144	0
0	208114	2.145	0
0	208212	2.146	0
0	208310	2.147	0
0	208405	2.148	0
0	208503	2.149	1
0	208604	2.15	1
0	208701	2.151	0
0	208798	2.152	0
0	208896	2.153	0
0	208994	2.154	1
0	209192	2.156	1
0	209291	2.157	0
0	209393	2.158	1
0	209490	2.159	0
0	209587	2.16	1
0	209681	2.161	1
0	209777	2.162	0
0	209871	2.163	0
0	209968	2.164	0
0	210065	2.165	0
0	210160	2.166	0
0	210254	2.167	0
0	210354	2.168	0
0	210451	2.169	1
0	210549	2.17	0
0	210647	2.171	0
0	210845	2.173	1
0	210939	2.174	0
0	211034	2.175	0
0	211225	2.177	0
0	211322	2.178	0
0	211418	2.179	0
0	211511	2.18	0
0	211607	2.181	1
0	211703	2.182	1
0	211799	2.183	0
0	211898	2.184	0
0	211998	2.185	1
0	212097	2.186	0
0	212293	2.188	0
0	212389	2.189	1
0	212482	2.19	0
0	212582	2.191	0
0	212675	2.192	0
0	212772	2.193	0
0	212869	2.194	0
0	212966	2.195	0
0	213071	2.196	0
0	213168	2.197	0
0	213263	2.198	0
0	213362	2.199	0
0	213456	2.2	0
0	213554	2.201	0
0	213653	2.202	0
0	213748	2.203	1
0	213845	2.204	0
0	213941	2.205	0
0	214039	2.206	0
0	214135	2.207	0
0	214229	2.208	0
0	214325	2.209	0
0	214423	2.21	0
0	214515	2.211	0
0	214612	2.212	1
0	214712	2.213	0
0	214812	2.214	1
0	214907	2.215	1
0	215007	2.216	0
0	215105	2.217	0
0	215205	2.218	0
0	215299	2.219	0
0	215393	2.22	0
0	215490	2.221	0
0	215587	2.222	0
0	215685	2.223	1
0	215781	2.224	2
0	215877	2.225	0
0	215976	2.226	0
0	216069	2.227	0
0	216164	2.228	0
0	216259	2.229	0
0	216350	2.23	0
0	216448	2.231	1
0	216547	2.232	1
0	216647	2.233	0
0	216747	2.234	0
0	216842	2.235	0
0	216940	2.236	0
0	217042	2.237	1
0	217138	2.238	0
0	217231	2.239	0
0	217329	2.24	1
0	217431	2.241	1
0	217530	2.242	0
0	217626	2.243	0
0	217725	2.244	1
0	217919	2.246	0
0	218014	2.247	0
0	218110	2.248	0
0	218204	2.249	0
0	218297	2.25	0
0	218393	2.251	0
0	218491	2.252	0
0	218587	2.253	0
0	218684	2.254	0
0	218782	2.255	0
0	218877	2.256	0
0	218973	2.257	1
0	219069	2.258	0
0	219164	2.259	0
0	219271	2.26	0
0	219368	2.261	0
0	219461	2.262	0
0	219557	2.263	0
0	219653	2.264	0
0	219754	2.265	0
0	219852	2.266	0
0	219947	2.267	0
0	220041	2.268	0
0	220140	2.269	0
0	220235	2.27	0
0	220328	2.271	0
0	220425	2.272	1
0	220522	2.273	0
0	220621	2.274	0
0	220714	2.275	0
0	220816	2.276	1
0	220915	2.277	0
0	221011	2.278	0
0	221108	2.279	0
0	221204	2.28	0
0	221305	2.281	0
0	221401	2.282	0
0	221500	2.283	1
0	221597	2.284	0
0	221693	2.285	0
0	221793	2.286	0
0	221886	2.287	0
0	221981	2.288	0
0	222079	2.289	1
0	222272	2.291	1
0	222372	2.292	1
0	222569	2.294	2
0	222668	2.295	0
0	222765	2.296	0
0	222863	2.297	0
0	222960	2.298	1
0	223152	2.3	0
0	223248	2.301	1
0	223343	2.302	0
0	223440	2.303	0
0	223533	2.304	0
0	223633	2.305	1
0	223728	2.306	1
0	223825	2.307	0
0	223917	2.308	0
0	224009	2.309	0
0	224206	2.311	1
0	224396	2.313	1
0	224497	2.314	1
0	224594	2.315	1
0	224688	2.316	0
0	224787	2.317	1
0	224884	2.318	1
0	224977	2.319	0
0	225073	2.32	0
0	225169	2.321	0
0	225267	2.322	0
0	225363	2.323	0
0	225459	2.324	0
0	225556	2.325	0
0	225655	2.326	1
0	225746	2.327	1
0	225840	2.328	0
0	225939	2.329	0
0	226037	2.33	0
0	226131	2.331	0
0	226225	2.332	0
0	226323	2.333	0
0	226420	2.334	0
0	226521	2.335	1
0	226616	2.336	0
0	226712	2.337	0
0	226810	2.338	2
0	226906	2.339	1
0	227001	2.34	0
0	227094	2.341	0
0	227189	2.342	0
0	227286	2.343	0
0	227380	2.344	0
0	227570	2.346	0
0	227666	2.347	0
0	227765	2.348	0
0	227864	2.349	0
0	227964	2.35	0
0	228060	2.351	0
0	228157	2.352	0
0	228255	2.353	1
0	228355	2.354	1
0	228452	2.355	3
0	228551	2.356	0
0	228753	2.358	0
0	228852	2.359	0
0	228948	2.36	0
0	229049	2.361	0
0	229250	2.363	1
0	229348	2.364	0
0	229446	2.365	0
0	229543	2.366	0
0	229642	2.367	0
0	229738	2.368	0
0	229839	2.369	0
0	229938	2.37	0
0	230032	2.371	0
0	230130	2.372	0
0	230228	2.373	1
0	230325	2.374	0
0	230422	2.375	0
0	230519	2.376	0
0	230618	2.377	0
0	230713	2.378	0
0	230812	2.379	1
0	230906	2.38	0
0	231003	2.381	0
0	231102	2.382	0
0	231199	2.383	0
0	231297	2.384	1
0	231395	2.385	0
0	231587	2.387	1
0	231685	2.388	1
0	231780	2.389	0
0	232072	2.392	1
0	232168	2.393	0
0	232264	2.394	0
0	232362	2.395	0
0	232558	2.397	0
0	232656	2.398	0
0	232759	2.399	0
0	232856	2.4	0
0	232951	2.401	0
0	233048	2.402	0
0	233143	2.403	0
0	233238	2.404	0
0	233336	2.405	0
0	233434	2.406	0
0	233531	2.407	0
0	233626	2.408	0
0	233721	2.409	0
0	233816	2.41	0
0	233914	2.411	0
0	234012	2.412	0
0	234110	2.413	0
0	234207	2.414	0
0	234302	2.415	0
0	234398	2.416	0
0	234495	2.417	0
0	234592	2.418	0
0	234689	2.419	0
0	234783	2.42	0
0	234881	2.421	1
0	234976	2.422	0
0	235070	2.423	0
0	235167	2.424	0
0	235365	2.426	0
0	235462	2.427	1
0	235556	2.428	1
0	235651	2.429	0
0	235749	2.43	1
0	235845	2.431	0
0	235938	2.432	0
0	236034	2.433	0
0	236130	2.434	0
0	236229	2.435	0
0	236422	2.437	1
0	236519	2.438	0
0	236617	2.439	0
0	236818	2.441	3
0	236915	2.442	0
0	237012	2.443	0
0	237113	2.444	0
0	237210	2.445	0
0	237306	2.446	1
0	237402	2.447	0
0	237503	2.448	2
0	237603	2.449	1
0	237696	2.45	0
0	237789	2.451	0
0	237891	2.452	0
0	237988	2.453	0
0	238086	2.454	0
0	238184	2.455	1
0	238282	2.456	1
0	238379	2.457	0
0	238481	2.458	1
0	238578	2.459	0
0	238672	2.46	0
0	238766	2.461	1
0	238859	2.462	0
0	238957	2.463	1
0	239051	2.464	0
0	239149	2.465	2
0	239246	2.466	0
0	239341	2.467	0
0	239440	2.468	0
0	239536	2.469	0
0	239632	2.47	0
0	239726	2.471	0
0	239822	2.472	2
0	239920	2.473	0
0	240305	2.477	1
0	240496	2.479	1
0	240688	2.481	0
0	240783	2.482	0
0	240880	2.483	0
0	240975	2.484	0
0	241071	2.485	0
0	241165	2.486	0
0	241261	2.487	0
0	241357	2.488	0
0	241456	2.489	0
0	241551	2.49	0
0	241652	2.491	0
0	241749	2.492	0
0	241844	2.493	0
0	241940	2.494	0
0	242034	2.495	0
0	242134	2.496	0
0	242431	2.499	1
0	242527	2.5	0
0	242624	2.501	0
0	242721	2.502	0
0	242817	2.503	0
0	242911	2.504	0
0	243007	2.505	0
0	243101	2.506	0
0	243196	2.507	0
0	243292	2.508	0
0	243389	2.509	0
0	243585	2.511	0
0	243683	2.512	1
0	243781	2.513	0
0	243879	2.514	1
0	243973	2.515	0
0	244069	2.516	0
0	244263	2.518	0
0	244359	2.519	1
0	244459	2.52	0
0	244658	2.522	2
0	244852	2.524	0
0	244947	2.525	0
0	245138	2.527	0
0	245232	2.528	1
0	245327	2.529	1
0	245427	2.53	0
0	245523	2.531	0
0	245618	2.532	0
0	245714	2.533	0
0	245811	2.534	1
0	245911	2.535	0
0	246106	2.537	2
0	246200	2.538	1
0	246297	2.539	0
0	246391	2.54	0
0	246487	2.541	0
0	246680	2.543	0
0	246779	2.544	1
0	246873	2.545	0
0	246966	2.546	0
0	247061	2.547	0
0	247158	2.548	0
0	247252	2.549	0
0	247347	2.55	0
0	247445	2.551	0
0	247545	2.552	0
0	247642	2.553	1
0	247839	2.555	2
0	247937	2.556	2
0	248033	2.557	2
0	248129	2.558	0
0	248224	2.559	0
0	248323	2.56	1
0	248419	2.561	0
0	248613	2.563	1
0	248813	2.565	0
0	249109	2.568	1
0	249203	2.569	0
0	249300	2.57	0
0	249399	2.571	0
0	249498	2.572	0
0	249599	2.573	0
0	249794	2.575	0
0	249891	2.576	0
0	249987	2.577	0
0	250082	2.578	0
0	250181	2.579	0
0	250277	2.58	0
0	250477	2.582	0
0	250575	2.583	0
0	250670	2.584	0
0	250763	2.585	0
0	250856	2.586	0
0	250950	2.587	0
0	251050	2.588	0
0	251145	2.589	0
0	251337	2.591	0
0	251436	2.592	0
0	251527	2.593	0
0	251626	2.594	2
0	251728	2.595	1
0	251823	2.596	0
0	251922	2.597	1
0	252022	2.598	0
0	252119	2.599	0
0	252219	2.6	1
0	252316	2.601	0
0	252411	2.602	0
0	252510	2.603	0
0	252610	2.604	1
0	252714	2.605	0
0	252807	2.606	0
0	252903	2.607	0
0	253003	2.608	1
0	253202	2.61	2
0	253301	2.611	2
0	253393	2.612	0
0	253490	2.613	0
0	253782	2.616	2
0	253877	2.617	1
0	253973	2.618	0
0	254068	2.619	0
0	254166	2.62	0
0	254367	2.622	2
0	254466	2.623	0
0	254561	2.624	0
0	254658	2.625	0
0	254757	2.626	0
0	254854	2.627	0
0	254950	2.628	0
0	255049	2.629	1
0	255246	2.631	0
0	255341	2.632	0
0	255638	2.635	0
0	255736	2.636	0
0	255935	2.638	0
0	256035	2.639	0
0	256133	2.64	0
0	256232	2.641	1
0	256329	2.642	0
0	256427	2.643	0
0	256525	2.644	1
0	256720	2.646	0
0	256815	2.647	1
0	256913	2.648	0
0	257006	2.649	0
0	257103	2.65	0
0	257198	2.651	0
0	257291	2.652	0
0	257489	2.654	0
0	257586	2.655	0
0	257683	2.656	1
0	257778	2.657	0
0	257872	2.658	0
0	257968	2.659	0
0	258065	2.66	0
0	258162	2.661	0
0	258256	2.662	0
0	258356	2.663	1
0	258450	2.664	2
0	258650	2.666	0
0	258749	2.667	0
0	258847	2.668	0
0	258940	2.669	0
0	259036	2.67	0
0	259135	2.671	0
0	259235	2.672	0
0	259334	2.673	0
0	259428	2.674	0
0	259523	2.675	0
0	259626	2.676	0
0	259721	2.677	0
0	259818	2.678	0
0	259912	2.679	0
0	260010	2.68	0
0	260110	2.681	0
0	260210	2.682	1
0	260307	2.683	0
0	260402	2.684	0
0	260498	2.685	0
0	260595	2.686	0
0	260690	2.687	0
0	260788	2.688	0
0	260887	2.689	0
0	260978	2.69	0
0	261074	2.691	0
0	261167	2.692	0
0	261268	2.693	1
0	261361	2.694	0
0	261459	2.695	0
0	261554	2.696	0
0	261649	2.697	0
0	261742	2.698	0
0	261938	2.7	0
0	262036	2.701	0
0	262133	2.702	0
0	262228	2.703	0
0	262326	2.704	0
0	262423	2.705	0
0	262521	2.706	0
0	262617	2.707	1
0	262712	2.708	0
0	262807	2.709	0
0	262903	2.71	0
0	263001	2.711	0
0	263096	2.712	0
0	263191	2.713	0
0	263290	2.714	0
0	263386	2.715	1
0	263480	2.716	0
0	263577	2.717	0
0	263671	2.718	0
0	263766	2.719	0
0	263865	2.72	0
0	263961	2.721	0
0	264057	2.722	0
0	264152	2.723	0
0	264248	2.724	0
0	264346	2.725	0
0	264444	2.726	1
0	264543	2.727	1
0	264644	2.728	1
0	264741	2.729	0
0	264836	2.73	1
0	264936	2.731	1
0	265031	2.732	0
0	265126	2.733	0
0	265222	2.734	0
0	265318	2.735	0
0	265417	2.736	0
0	265514	2.737	1
0	265608	2.738	1
0	265700	2.739	0
0	265798	2.74	0
0	265892	2.741	0
0	265988	2.742	0
0	266084	2.743	0
0	266277	2.745	0
0	266375	2.746	0
0	266473	2.747	1
0	266572	2.748	1
0	266668	2.749	0
0	266764	2.75	0
0	266862	2.751	1
0	266959	2.752	1
0	267058	2.753	0
0	267152	2.754	0
0	267250	2.755	0
0	267346	2.756	0
0	267444	2.757	0
0	267537	2.758	0
0	267631	2.759	0
0	267726	2.76	0
0	267824	2.761	1
0	267921	2.762	0
0	268014	2.763	0
0	268108	2.764	0
0	268203	2.765	0
0	268304	2.766	0
0	268505	2.768	1
0	268601	2.769	0
0	268695	2.77	0
0	268790	2.771	0
0	268884	2.772	0
0	268980	2.773	0
0	269078	2.774	0
0	269171	2.775	0
0	269264	2.776	0
0	269360	2.777	0
0	269462	2.778	1
0	269559	2.779	0
0	269656	2.78	0
0	269753	2.781	0
0	269855	2.782	0
0	269954	2.783	0
0	270048	2.784	1
0	270146	2.785	0
0	270247	2.786	0
0	270441	2.788	0
0	270537	2.789	1
0	270632	2.79	1
0	270729	2.791	1
0	270831	2.792	0
0	270927	2.793	1
0	271025	2.794	2
0	271122	2.795	0
0	271217	2.796	0
0	271317	2.797	0
0	271415	2.798	0
0	271512	2.799	0
0	271610	2.8	0
0	271703	2.801	0
0	271803	2.802	0
0	271898	2.803	0
0	271994	2.804	0
0	272092	2.805	0
0	272187	2.806	0
0	272284	2.807	0
0	272378	2.808	0
0	272474	2.809	0
0	272576	2.81	0
0	272671	2.811	0
0	272766	2.812	0
0	272862	2.813	0
0	272956	2.814	0
0	273053	2.815	1
0	273148	2.816	1
0	273245	2.817	0
0	273339	2.818	0
0	273536	2.82	0
0	273637	2.821	0
0	273732	2.822	0
0	273824	2.823	0
0	273919	2.824	0
0	274014	2.825	0
0	274310	2.828	1
0	274406	2.829	0
0	274601	2.831	0
0	274697	2.832	0
0	274798	2.833	0
0	274897	2.834	0
0	274994	2.835	0
0	275284	2.838	0
0	275482	2.84	0
0	275579	2.841	0
0	275678	2.842	1
0	275775	2.843	0
0	275867	2.844	0
0	275961	2.845	0
0	276059	2.846	1
0	276153	2.847	0
0	276248	2.848	0
0	276347	2.849	0
0	276443	2.85	0
0	276541	2.851	0
0	276638	2.852	0
0	276732	2.853	0
0	276828	2.854	0
0	276928	2.855	0
0	277025	2.856	0
0	277121	2.857	0
0	277218	2.858	0
0	277317	2.859	0
0	277416	2.86	1
0	277513	2.861	0
0	277610	2.862	0
0	277805	2.864	2
0	277902	2.865	0
0	277999	2.866	1
0	278093	2.867	0
0	278189	2.868	2
0	278283	2.869	0
0	278379	2.87	0
0	278474	2.871	0
0	278572	2.872	0
0	278666	2.873	0
0	278759	2.874	0
0	278855	2.875	0
0	278952	2.876	0
0	279051	2.877	0
0	279145	2.878	0
0	279244	2.879	0
0	279344	2.88	0
0	279443	2.881	0
0	279540	2.882	1
0	279635	2.883	1
0	279733	2.884	0
0	279831	2.885	0
0	279929	2.886	1
0	280022	2.887	0
0	280122	2.888	1
0	280219	2.889	2
0	280419	2.891	0
0	280516	2.892	0
0	280609	2.893	0
0	280701	2.894	0
0	280798	2.895	0
0	280902	2.896	0
0	281000	2.897	1
0	281098	2.898	0
0	281200	2.899	0
0	281388	2.901	0
0	281583	2.903	1
0	281678	2.904	0
0	281777	2.905	0
0	281873	2.906	0
0	281970	2.907	1
0	282068	2.908	0
0	282165	2.909	0
0	282260	2.91	0
0	282356	2.911	0
0	282460	2.912	1
0	282558	2.913	0
0	282653	2.914	0
0	282754	2.915	0
0	282850	2.916	0
0	282944	2.917	0
0	283041	2.918	0
0	283139	2.919	0
0	283236	2.92	0
0	283430	2.922	1
0	283525	2.923	1
0	283619	2.924	0
0	283714	2.925	0
0	283810	2.926	0
0	283904	2.927	0
0	284003	2.928	0
0	284099	2.929	0
0	284198	2.93	1
0	284297	2.931	1
0	284397	2.932	0
0	284491	2.933	0
0	284590	2.934	0
0	284685	2.935	0
0	284781	2.936	0
0	284877	2.937	0
0	284978	2.938	1
0	285072	2.939	0
0	285169	2.94	0
0	285266	2.941	0
0	285364	2.942	0
0	285459	2.943	0
0	285553	2.944	0
0	285652	2.945	0
0	285748	2.946	1
0	285846	2.947	0
0	285945	2.948	0
0	286041	2.949	0
0	286139	2.95	0
0	286238	2.951	1
0	286334	2.952	0
0	286432	2.953	0
0	286528	2.954	0
0	286625	2.955	0
0	286717	2.956	0
0	286811	2.957	0
0	286907	2.958	2
0	287002	2.959	0
0	287102	2.96	1
0	287197	2.961	0
0	287293	2.962	0
0	287395	2.963	0
0	287496	2.964	0
0	287592	2.965	0
0	287688	2.966	0
0	287884	2.968	0
0	287981	2.969	0
0	288074	2.97	0
0	288174	2.971	0
0	288275	2.972	1
0	288371	2.973	2
0	288474	2.974	0
0	288570	2.975	0
0	288672	2.976	2
0	288773	2.977	0
0	288971	2.979	1
0	289067	2.98	0
0	289164	2.981	0
0	289366	2.983	1
0	289463	2.984	0
0	289560	2.985	0
0	289659	2.986	0
0	289755	2.987	0
0	289853	2.988	0
0	289949	2.989	0
0	290044	2.99	2
0	290137	2.991	0
0	290235	2.992	0
0	290329	2.993	0
0	290529	2.995	0
0	290625	2.996	1
0	290720	2.997	0
0	290816	2.998	0
0	290911	2.999	0
0	291012	3	1
0	291106	3.001	1
0	291202	3.002	0
0	291304	3.003	0
0	291405	3.004	0
0	291507	3.005	0
0	291602	3.006	0
0	291698	3.007	0
0	291793	3.008	0
0	291889	3.009	0
0	291981	3.01	0
0	292076	3.011	0
0	292170	3.012	0
0	292265	3.013	0
0	292361	3.014	0
0	292458	3.015	0
0	292552	3.016	0
0	292747	3.018	0
0	292842	3.019	0
0	292936	3.02	0
0	293033	3.021	0
0	293131	3.022	0
0	293232	3.023	0
0	293421	3.025	0
0	293518	3.026	0
0	293616	3.027	2
0	293710	3.028	0
0	293904	3.03	0
0	293998	3.031	0
0	294092	3.032	0
0	294188	3.033	0
0	294281	3.034	0
0	294375	3.035	0
0	294567	3.037	1
0	294663	3.038	0
0	294760	3.039	0
0	294853	3.04	0
0	294954	3.041	0
0	295153	3.043	0
0	295353	3.045	0
0	295554	3.047	0
0	295652	3.048	0
0	295748	3.049	1
0	295844	3.05	1
0	296034	3.052	0
0	296131	3.053	0
0	296228	3.054	0
0	296323	3.055	1
0	296421	3.056	0
0	296517	3.057	0
0	296613	3.058	0
0	296711	3.059	0
0	296808	3.06	0
0	296902	3.061	0
0	297003	3.062	1
0	297095	3.063	0
0	297192	3.064	0
0	297386	3.066	0
0	297488	3.067	0
0	297588	3.068	0
0	297685	3.069	0
0	297784	3.07	0
0	297884	3.071	0
0	297981	3.072	0
0	298080	3.073	0
0	298181	3.074	0
0	298475	3.077	0
0	298571	3.078	0
0	298673	3.079	0
0	298771	3.08	0
0	298870	3.081	1
0	298968	3.082	0
0	299069	3.083	0
0	299162	3.084	0
0	299255	3.085	0
0	299451	3.087	1
0	299547	3.088	0
0	299640	3.089	0
0	299739	3.09	0
0	299837	3.091	0
0	299934	3.092	0
0	300031	3.093	0
0	300128	3.094	0
0	300227	3.095	0
0	300325	3.096	1
0	300424	3.097	0
0	300518	3.098	0
0	300615	3.099	1
0	300709	3.1	0
0	300806	3.101	0
0	300905	3.102	0
0	301000	3.103	0
0	301195	3.105	1
0	301293	3.106	0
0	301392	3.107	0
0	301490	3.108	0
0	301689	3.11	1
0	301783	3.111	0
0	301879	3.112	1
0	301974	3.113	2
0	302071	3.114	0
0	302165	3.115	0
0	302263	3.116	0
0	302358	3.117	1
0	302455	3.118	1
0	302547	3.119	0
0	302647	3.12	0
0	302741	3.121	0
0	302839	3.122	0
0	302937	3.123	0
0	303034	3.124	0
0	303131	3.125	0
0	303225	3.126	0
0	303321	3.127	0
0	303418	3.128	1
0	303515	3.129	0
0	303618	3.13	1
0	303716	3.131	0
0	303811	3.132	0
0	303907	3.133	0
0	304002	3.134	0
0	304096	3.135	1
0	304191	3.136	0
0	304290	3.137	1
0	304386	3.138	0
0	304482	3.139	0
0	304583	3.14	1
0	304679	3.141	0
0	304778	3.142	0
0	304873	3.143	0
0	304970	3.144	0
0	305069	3.145	1
0	305163	3.146	1
0	305266	3.147	1
0	305362	3.148	0
0	305456	3.149	1
0	305551	3.15	0
0	305650	3.151	1
0	305748	3.152	0
0	305841	3.153	0
0	305941	3.154	0
0	306035	3.155	0
0	306128	3.156	0
0	306224	3.157	0
0	306320	3.158	0
0	306418	3.159	0
0	306516	3.16	1
0	306613	3.161	1
0	306813	3.163	2
0	306911	3.164	0
0	307006	3.165	1
0	307103	3.166	1
0	307198	3.167	0
0	307294	3.168	0
0	307390	3.169	0
0	307489	3.17	0
0	307585	3.171	0
0	307685	3.172	0
0	307776	3.173	0
0	307874	3.174	0
0	307969	3.175	0
0	308065	3.176	0
0	308270	3.178	0
0	308368	3.179	0
0	308464	3.18	0
0	308561	3.181	0
0	308658	3.182	0
0	308754	3.183	0
0	308853	3.184	1
0	308949	3.185	0
0	309043	3.186	0
0	309141	3.187	1
0	309235	3.188	1
0	309336	3.189	0
0	309433	3.19	0
0	309530	3.191	0
0	309624	3.192	0
0	309715	3.193	0
0	309808	3.194	0
0	309906	3.195	0
0	310103	3.197	0
0	310202	3.198	2
0	310298	3.199	1
0	310393	3.2	0
0	310491	3.201	0
0	310686	3.203	1
0	310781	3.204	0
0	310878	3.205	0
0	310976	3.206	0
0	311073	3.207	0
0	311168	3.208	0
0	311266	3.209	0
0	311367	3.21	1
0	311466	3.211	1
0	311570	3.212	0
0	311764	3.214	0
0	311859	3.215	0
0	311954	3.216	0
0	312053	3.217	2
0	312149	3.218	0
0	312246	3.219	0
0	312341	3.22	0
0	312437	3.221	1
0	312639	3.223	1
0	312732	3.224	0
0	312831	3.225	0
0	312928	3.226	0
0	313025	3.227	0
0	313120	3.228	0
0	313214	3.229	0
0	313316	3.23	0
0	313413	3.231	0
0	313510	3.232	0
0	313608	3.233	0
0	313707	3.234	1
0	313801	3.235	0
0	313899	3.236	0
0	313997	3.237	0
0	314095	3.238	0
0	314290	3.24	3
0	314389	3.241	1
0	314487	3.242	0
0	314584	3.243	1
0	314682	3.244	0
0	314778	3.245	0
0	314876	3.246	0
0	314975	3.247	0
0	315075	3.248	0
0	315174	3.249	0
0	315377	3.251	0
0	315472	3.252	0
0	315566	3.253	1
0	315763	3.255	0
0	315861	3.256	1
0	315959	3.257	0
0	316054	3.258	0
0	316148	3.259	0
0	316246	3.26	0
0	316436	3.262	0
0	316537	3.263	0
0	316639	3.264	0
0	316736	3.265	0
0	316836	3.266	0
0	316929	3.267	0
0	317023	3.268	0
0	317123	3.269	1
0	317320	3.271	1
0	317419	3.272	0
0	317515	3.273	0
0	317616	3.274	1
0	317714	3.275	0
0	318000	3.278	0
0	318094	3.279	0
0	318193	3.28	1
0	318287	3.281	0
0	318387	3.282	0
0	318482	3.283	0
0	318674	3.285	0
0	318766	3.286	0
0	318864	3.287	0
0	318959	3.288	1
0	319057	3.289	0
0	319149	3.29	0
0	319243	3.291	0
0	319338	3.292	0
0	319433	3.293	0
0	319530	3.294	0
0	319626	3.295	0
0	319727	3.296	0
0	319821	3.297	0
0	319919	3.298	1
0	320014	3.299	0
0	320110	3.3	0
0	320205	3.301	0
0	320305	3.302	0
0	320403	3.303	0
0	320499	3.304	0
0	320594	3.305	0
0	320790	3.307	0
0	320885	3.308	0
0	320979	3.309	0
0	321080	3.31	0
0	321175	3.311	0
0	321271	3.312	0
0	321366	3.313	0
0	321460	3.314	0
0	321557	3.315	0
0	321652	3.316	0
0	321751	3.317	0
0	321851	3.318	0
0	321948	3.319	0
0	322044	3.32	0
0	322141	3.321	0
0	322235	3.322	0
0	322330	3.323	0
0	322528	3.325	0
0	322622	3.326	0
0	322714	3.327	0
0	322810	3.328	0
0	322904	3.329	0
0	323005	3.33	0
0	323104	3.331	0
0	323204	3.332	0
0	323298	3.333	1
0	323394	3.334	0
0	323490	3.335	1
0	323583	3.336	0
0	323681	3.337	0
0	323778	3.338	0
0	323876	3.339	2
0	323974	3.34	0
0	324071	3.341	0
0	324167	3.342	0
0	324263	3.343	0
0	324361	3.344	0
0	324464	3.345	1
0	324558	3.346	0
0	324656	3.347	0
0	324751	3.348	0
0	324848	3.349	0
0	324944	3.35	1
0	325042	3.351	1
0	325140	3.352	1
0	325333	3.354	0
0	325436	3.355	1
0	325531	3.356	1
0	325627	3.357	0
0	325822	3.359	0
0	325918	3.36	0
0	326015	3.361	0
0	326111	3.362	0
0	326210	3.363	0
0	326303	3.364	0
0	326402	3.365	0
0	326499	3.366	0
0	326595	3.367	0
0	326693	3.368	1
0	326790	3.369	1
0	326886	3.37	1
0	326983	3.371	1
0	327085	3.372	1
0	327179	3.373	1
0	327272	3.374	0
0	327368	3.375	1
0	327470	3.376	0
0	327564	3.377	0
0	327661	3.378	0
0	327756	3.379	0
0	327856	3.38	0
0	327953	3.381	0
0	328049	3.382	0
0	328147	3.383	2
0	328248	3.384	0
0	328348	3.385	0
0	328441	3.386	0
0	328539	3.387	0
0	328636	3.388	0
0	328736	3.389	0
0	328832	3.39	0
0	328934	3.391	1
0	329029	3.392	0
0	329126	3.393	0
0	329222	3.394	0
0	329321	3.395	0
0	329419	3.396	0
0	329516	3.397	0
0	329615	3.398	0
0	329710	3.399	0
0	329804	3.4	0
0	329903	3.401	0
0	330003	3.402	0
0	330102	3.403	1
0	330198	3.404	0
0	330295	3.405	0
0	330391	3.406	0
0	330487	3.407	0
0	330580	3.408	0
0	330678	3.409	0
0	330774	3.41	0
0	330869	3.411	0
0	330966	3.412	0
0	331061	3.413	0
0	331158	3.414	0
0	331257	3.415	0
0	331356	3.416	0
0	331451	3.417	0
0	331550	3.418	1
0	331647	3.419	0
0	331747	3.42	0
0	331846	3.421	0
0	331941	3.422	0
0	332038	3.423	1
0	332136	3.424	1
0	332229	3.425	0
0	332326	3.426	1
0	332422	3.427	1
0	332515	3.428	0
0	332612	3.429	0
0	332705	3.43	0
0	332810	3.431	0
0	333004	3.433	0
0	333104	3.434	0
0	333205	3.435	0
0	333302	3.436	0
0	333396	3.437	0
0	333590	3.439	1
0	333687	3.44	0
0	333786	3.441	0
0	333884	3.442	0
0	333984	3.443	0
0	334084	3.444	0
0	334180	3.445	0
0	334274	3.446	0
0	334369	3.447	0
0	334466	3.448	0
0	334563	3.449	0
0	334664	3.45	0
0	334761	3.451	0
0	334858	3.452	0
0	334953	3.453	0
0	335056	3.454	0
0	335158	3.455	0
0	335257	3.456	0
0	335350	3.457	0
0	335445	3.458	0
0	335540	3.459	0
0	335638	3.46	0
0	335736	3.461	0
0	335831	3.462	1
0	335931	3.463	1
0	336029	3.464	0
0	336122	3.465	0
0	336219	3.466	0
0	336317	3.467	0
0	336412	3.468	0
0	336510	3.469	0
0	336604	3.47	1
0	336697	3.471	0
0	336792	3.472	0
0	336891	3.473	0
0	336985	3.474	0
0	337079	3.475	0
0	337172	3.476	0
0	337269	3.477	0
0	337366	3.478	1
0	337467	3.479	1
0	337567	3.48	0
0	337662	3.481	0
0	337761	3.482	0
0	337854	3.483	0
0	337953	3.484	2
0	338053	3.485	0
0	338149	3.486	0
0	338248	3.487	0
0	338343	3.488	0
0	338444	3.489	0
0	338541	3.49	0
0	338638	3.491	0
0	338838	3.493	0
0	338936	3.494	0
0	339031	3.495	0
0	339130	3.496	0
0	339227	3.497	0
0	339324	3.498	1
0	339421	3.499	0
0	339517	3.5	0
0	339614	3.501	0
0	339712	3.502	0
0	339808	3.503	1
0	339905	3.504	0
0	340005	3.505	0
0	340103	3.506	0
0	340198	3.507	0
0	340291	3.508	1
0	340392	3.509	0
0	340493	3.51	0
0	340591	3.511	0
0	340687	3.512	0
0	340782	3.513	0
0	340875	3.514	0
0	340976	3.515	0
0	341072	3.516	0
0	341169	3.517	0
0	341265	3.518	0
0	341363	3.519	0
0	341460	3.52	0
0	341556	3.521	0
0	341653	3.522	1
0	341752	3.523	1
0	341848	3.524	0
0	341947	3.525	0
0	342045	3.526	0
0	342143	3.527	1
0	342240	3.528	1
0	342338	3.529	0
0	342529	3.531	0
0	342818	3.534	0
0	342918	3.535	0
0	343014	3.536	0
0	343111	3.537	0
0	343209	3.538	0
0	343304	3.539	0
0	343400	3.54	0
0	343495	3.541	0
0	343589	3.542	0
0	343683	3.543	0
0	343781	3.544	0
0	343878	3.545	0
0	343985	3.546	0
0	344078	3.547	0
0	344177	3.548	0
0	344273	3.549	0
0	344370	3.55	0
0	344467	3.551	0
0	344565	3.552	0
0	344662	3.553	0
0	344761	3.554	0
0	344856	3.555	0
0	345049	3.557	0
0	345143	3.558	0
0	345236	3.559	0
0	345331	3.56	1
0	345527	3.562	0
0	345623	3.563	0
0	345720	3.564	0
0	345813	3.565	0
0	345912	3.566	1
0	346006	3.567	0
0	346107	3.568	0
0	346203	3.569	0
0	346300	3.57	1
0	346397	3.571	0
0	346493	3.572	0
0	346590	3.573	0
0	346689	3.574	0
0	346788	3.575	0
0	346881	3.576	0
0	346979	3.577	0
0	347076	3.578	0
0	347178	3.579	0
0	347273	3.58	2
0	347372	3.581	0
0	347467	3.582	0
0	347561	3.583	0
0	347655	3.584	0
0	347756	3.585	0
0	347857	3.586	1
0	347951	3.587	0
0	348051	3.588	0
0	348343	3.591	0
0	348439	3.592	0
0	348537	3.593	0
0	348639	3.594	0
0	348735	3.595	0
0	348832	3.596	0
0	348927	3.597	0
0	349023	3.598	0
0	349120	3.599	0
0	349220	3.6	0
0	349319	3.601	0
0	349414	3.602	0
0	349515	3.603	0
0	349612	3.604	0
0	349705	3.605	0
0	349799	3.606	0
0	349898	3.607	0
0	349995	3.608	0
0	350091	3.609	0
0	350190	3.61	0
0	350287	3.611	0
0	350389	3.612	0
0	350488	3.613	0
0	350584	3.614	0
0	350683	3.615	0
0	350784	3.616	1
0	350879	3.617	0
0	350979	3.618	0
0	351081	3.619	0
0	351177	3.62	0
0	351276	3.621	0
0	351368	3.622	0
0	351464	3.623	0
0	351561	3.624	0
0	351653	3.625	1
0	351746	3.626	0
0	351845	3.627	1
0	351945	3.628	0
0	352040	3.629	0
0	352136	3.63	1
0	352234	3.631	0
0	352333	3.632	0
0	352430	3.633	0
0	352527	3.634	0
0	352624	3.635	0
0	352721	3.636	0
0	352819	3.637	0
0	353014	3.639	1
0	353109	3.64	0
0	353211	3.641	0
0	353405	3.643	0
0	353502	3.644	0
0	353604	3.645	1
0	353702	3.646	0
0	353800	3.647	0
0	353906	3.648	0
0	354008	3.649	1
0	354109	3.65	0
0	354208	3.651	0
0	354306	3.652	0
0	354406	3.653	2
0	354503	3.654	0
0	354598	3.655	0
0	354690	3.656	0
0	354787	3.657	0
0	354883	3.658	0
0	354981	3.659	1
0	355078	3.66	0
0	355175	3.661	0
0	355274	3.662	1
0	355372	3.663	0
0	355469	3.664	0
0	355566	3.665	0
0	355660	3.666	0
0	355757	3.667	0
0	355856	3.668	0
0	355949	3.669	0
0	356045	3.67	0
0	356141	3.671	0
0	356240	3.672	0
0	356335	3.673	0
0	356429	3.674	0
0	356530	3.675	0
0	356625	3.676	0
0	356718	3.677	0
0	356814	3.678	0
0	356908	3.679	0
0	357000	3.68	0
0	357093	3.681	0
0	357187	3.682	0
0	357287	3.683	1
0	357382	3.684	0
0	357477	3.685	0
0	357669	3.687	1
0	357764	3.688	0
0	357864	3.689	0
0	357968	3.69	1
0	358062	3.691	0
0	358157	3.692	0
0	358254	3.693	0
0	358352	3.694	0
0	358447	3.695	0
0	358544	3.696	0
0	358641	3.697	0
0	358740	3.698	0
0	358841	3.699	0
0	358936	3.7	0
0	359034	3.701	0
0	359134	3.702	0
0	359228	3.703	0
0	359328	3.704	0
0	359427	3.705	1
0	359526	3.706	1
0	359623	3.707	0
0	359722	3.708	0
0	359820	3.709	0
0	359920	3.71	0
0	360020	3.711	0
0	360115	3.712	0
0	360216	3.713	0
0	360313	3.714	0
0	360409	3.715	0
0	360507	3.716	0
0	360604	3.717	0
0	360700	3.718	0
0	360797	3.719	0
0	360894	3.72	1
0	360990	3.721	0
0	361084	3.722	0
0	361179	3.723	0
0	361279	3.724	0
0	361373	3.725	0
0	361563	3.727	0
0	361662	3.728	0
0	361760	3.729	0
0	361855	3.73	0
0	361952	3.731	0
0	362047	3.732	1
0	362143	3.733	0
0	362238	3.734	0
0	362429	3.736	0
0	362527	3.737	0
0	362626	3.738	0
0	362725	3.739	1
0	362819	3.74	0
0	362915	3.741	0
0	363010	3.742	0
0	363106	3.743	0
0	363200	3.744	0
0	363303	3.745	0
0	363401	3.746	1
0	363499	3.747	0
0	363594	3.748	0
0	363693	3.749	0
0	363787	3.75	0
0	363888	3.751	0
0	363984	3.752	0
0	364081	3.753	0
0	364177	3.754	0
0	364273	3.755	1
0	364369	3.756	1
0	364467	3.757	0
0	364564	3.758	0
0	364661	3.759	1
0	364758	3.76	2
0	364862	3.761	0
0	364959	3.762	0
0	365056	3.763	0
0	365152	3.764	0
0	365252	3.765	1
0	365346	3.766	0
0	365441	3.767	0
0	365537	3.768	0
0	365634	3.769	1
0	365732	3.77	0
0	365828	3.771	0
0	365922	3.772	0
0	366021	3.773	0
0	366119	3.774	0
0	366213	3.775	1
0	366309	3.776	0
0	366411	3.777	2
0	366508	3.778	0
0	366610	3.779	1
0	366705	3.78	0
0	366802	3.781	1
0	366898	3.782	0
0	366992	3.783	0
0	367093	3.784	0
0	367191	3.785	0
0	367286	3.786	1
0	367381	3.787	0
0	367481	3.788	0
0	367584	3.789	0
0	367681	3.79	0
0	367778	3.791	0
0	367870	3.792	0
0	367966	3.793	1
0	368064	3.794	0
0	368160	3.795	0
0	368259	3.796	0
0	368356	3.797	1
0	368550	3.799	0
0	368646	3.8	0
0	368743	3.801	0
0	368838	3.802	0
0	368937	3.803	1
0	369138	3.805	0
0	369234	3.806	0
0	369330	3.807	0
0	369429	3.808	0
0	369525	3.809	0
0	369623	3.81	1
0	369722	3.811	0
0	369822	3.812	0
0	369917	3.813	0
0	370013	3.814	0
0	370106	3.815	0
0	370203	3.816	0
0	370296	3.817	0
0	370388	3.818	0
0	370488	3.819	1
0	370583	3.82	1
0	370683	3.821	0
0	370781	3.822	1
0	370873	3.823	0
0	370969	3.824	0
0	371068	3.825	0
0	371163	3.826	0
0	371259	3.827	1
0	371354	3.828	0
0	371452	3.829	2
0	371548	3.83	0
0	371647	3.831	0
0	371743	3.832	1
0	371843	3.833	1
0	371939	3.834	0
0	372038	3.835	0
0	372138	3.836	0
0	372428	3.839	0
0	372524	3.84	0
0	372620	3.841	0
0	372720	3.842	0
0	372910	3.844	1
0	373006	3.845	0
0	373102	3.846	0
0	373199	3.847	1
0	373292	3.848	1
0	373387	3.849	0
0	373486	3.85	1
0	373584	3.851	0
0	373682	3.852	0
0	373786	3.853	1
0	373888	3.854	1
0	373986	3.855	0
0	374087	3.856	1
0	374186	3.857	0
0	374280	3.858	0
0	374378	3.859	0
0	374475	3.86	1
0	374573	3.861	1
0	374671	3.862	1
0	374770	3.863	1
0	374867	3.864	0
0	374960	3.865	0
0	375061	3.866	0
0	375157	3.867	0
0	375250	3.868	0
0	375349	3.869	0
0	375445	3.87	0
0	375538	3.871	0
0	375634	3.872	0
0	375728	3.873	0
0	375827	3.874	0
0	375923	3.875	0
0	376018	3.876	0
0	376115	3.877	0
0	376211	3.878	0
0	376309	3.879	0
0	376403	3.88	0
0	376499	3.881	0
0	376591	3.882	0
0	376686	3.883	0
0	376782	3.884	1
0	376881	3.885	0
0	376977	3.886	0
0	377081	3.887	0
0	377178	3.888	0
0	377272	3.889	0
0	377372	3.89	0
0	377468	3.891	0
0	377568	3.892	0
0	377661	3.893	0
0	377757	3.894	1
0	377856	3.895	0
0	377954	3.896	0
0	378054	3.897	0
0	378152	3.898	0
0	378250	3.899	0
0	378352	3.9	1
0	378450	3.901	0
0	378545	3.902	0
0	378643	3.903	0
0	378738	3.904	1
0	378834	3.905	1
0	378929	3.906	0
0	379028	3.907	1
0	379126	3.908	0
0	379228	3.909	0
0	379324	3.91	1
0	379420	3.911	0
0	379516	3.912	0
0	379612	3.913	1
0	379712	3.914	1
0	379808	3.915	0
0	379909	3.916	0
0	380004	3.917	0
0	380101	3.918	0
0	380199	3.919	0
0	380294	3.92	0
0	380387	3.921	0
0	380482	3.922	0
0	380582	3.923	0
0	380681	3.924	0
0	380778	3.925	0
0	380876	3.926	1
0	380976	3.927	0
0	381071	3.928	0
0	381271	3.93	0
0	381368	3.931	0
0	381465	3.932	1
0	381561	3.933	0
0	381657	3.934	0
0	381751	3.935	0
0	381846	3.936	0
0	381944	3.937	0
0	382044	3.938	0
0	382143	3.939	0
0	382239	3.94	0
0	382335	3.941	0
0	382432	3.942	1
0	382527	3.943	0
0	382621	3.944	0
0	382717	3.945	0
0	382815	3.946	0
0	382910	3.947	0
0	383005	3.948	0
0	383102	3.949	0
0	383198	3.95	0
0	383297	3.951	0
0	383395	3.952	0
0	383489	3.953	0
0	383588	3.954	0
0	383683	3.955	0
0	383778	3.956	0
0	383877	3.957	0
0	383976	3.958	0
0	384074	3.959	0
0	384173	3.96	0
0	384269	3.961	0
0	384363	3.962	0
0	384457	3.963	2
0	384555	3.964	1
0	384650	3.965	0
0	384747	3.966	0
0	384846	3.967	0
0	384940	3.968	0
0	385134	3.97	0
0	385229	3.971	0
0	385327	3.972	1
0	385424	3.973	0
0	385520	3.974	0
0	385616	3.975	0
0	385715	3.976	0
0	385808	3.977	0
0	385902	3.978	0
0	385998	3.979	0
0	386093	3.98	0
0	386188	3.981	0
0	386279	3.982	0
0	386379	3.983	1
0	386472	3.984	0
0	386568	3.985	0
0	386665	3.986	0
0	386761	3.987	0
0	386856	3.988	0
0	386950	3.989	0
0	387045	3.99	0
0	387142	3.991	0
0	387241	3.992	0
0	387342	3.993	1
0	387442	3.994	0
0	387539	3.995	0
0	387637	3.996	0
0	387734	3.997	0
0	387833	3.998	1
0	387927	3.999	0
0	388027	4	0
0	388122	4.001	0
0	388215	4.002	0
0	388406	4.004	0
0	388503	4.005	0
0	388605	4.006	0
0	388702	4.007	0
0	388801	4.008	0
0	388896	4.009	0
0	388998	4.01	0
0	389094	4.011	0
0	389188	4.012	0
0	389286	4.013	0
0	389480	4.015	0
0	389580	4.016	0
0	389677	4.017	0
0	389772	4.018	0
0	389867	4.019	0
0	389964	4.02	0
0	390060	4.021	0
0	390156	4.022	0
0	390251	4.023	0
0	390345	4.024	0
0	390441	4.025	1
0	390539	4.026	0
0	390632	4.027	0
0	390731	4.028	0
0	390831	4.029	0
0	390926	4.03	0
0	391024	4.031	1
0	391122	4.032	0
0	391217	4.033	0
0	391314	4.034	0
0	391410	4.035	0
0	391508	4.036	0
0	391606	4.037	1
0	391704	4.038	0
0	391800	4.039	0
0	391900	4.04	0
0	391999	4.041	0
0	392098	4.042	1
0	392190	4.043	0
0	392286	4.044	0
0	392382	4.045	0
0	392480	4.046	0
0	392574	4.047	0
0	392671	4.048	0
0	392771	4.049	0
0	392864	4.05	0
0	392962	4.051	0
0	393060	4.052	0
0	393154	4.053	0
0	393252	4.054	1
0	393349	4.055	1
0	393445	4.056	0
0	393542	4.057	0
0	393637	4.058	0
0	393732	4.059	0
0	393826	4.06	0
0	393919	4.061	0
0	394014	4.062	0
0	394109	4.063	0
0	394208	4.064	0
0	394304	4.065	0
0	394399	4.066	0
0	394493	4.067	0
0	394589	4.068	0
0	394685	4.069	0
0	394784	4.07	0
0	394880	4.071	0
0	394977	4.072	0
0	395076	4.073	1
0	395170	4.074	1
0	395267	4.075	0
0	395364	4.076	0
0	395459	4.077	0
0	395558	4.078	0
0	395651	4.079	0
0	395746	4.08	0
0	395844	4.081	0
0	395942	4.082	1
0	396034	4.083	0
0	396130	4.084	0
0	396226	4.085	0
0	396320	4.086	0
0	396418	4.087	2
0	396514	4.088	2
0	396611	4.089	0
0	396704	4.09	0
0	396800	4.091	0
0	396895	4.092	0
0	396992	4.093	0
0	397088	4.094	1
0	397184	4.095	0
0	397282	4.096	0
0	397377	4.097	0
0	397475	4.098	1
0	397574	4.099	0
0	397670	4.1	0
0	397767	4.101	0
0	397867	4.102	1
0	397966	4.103	1
0	398068	4.104	0
0	398166	4.105	1
0	398269	4.106	2
0	398363	4.107	0
0	398561	4.109	1
0	398662	4.11	0
0	398756	4.111	0
0	398854	4.112	0
0	398953	4.113	0
0	399053	4.114	1
0	399152	4.115	1
0	399248	4.116	0
0	399345	4.117	0
0	399443	4.118	0
0	399535	4.119	0
0	399632	4.12	0
0	399826	4.122	0
0	399927	4.123	1
0	400022	4.124	0
0	400125	4.125	0
0	400223	4.126	0
0	400317	4.127	0
0	400413	4.128	1
0	400509	4.129	0
0	400607	4.13	0
0	400799	4.132	0
0	400893	4.133	0
0	400990	4.134	0
0	401084	4.135	0
0	401188	4.136	1
0	401287	4.137	0
0	401382	4.138	0
0	401482	4.139	0
0	401579	4.14	1
0	401680	4.141	0
0	401775	4.142	0
0	401873	4.143	0
0	401972	4.144	1
0	402069	4.145	0
0	402163	4.146	0
0	402256	4.147	0
0	402350	4.148	0
0	402454	4.149	0
0	402553	4.15	0
0	402651	4.151	0
0	402750	4.152	0
0	402843	4.153	0
0	402938	4.154	0
0	403038	4.155	0
0	403134	4.156	0
0	403230	4.157	0
0	403328	4.158	0
0	403421	4.159	0
0	403518	4.16	0
0	403613	4.161	0
0	403713	4.162	0
0	403809	4.163	0
0	403909	4.164	0
0	404009	4.165	1
0	404109	4.166	0
0	404206	4.167	0
0	404299	4.168	0
0	404395	4.169	0
0	404492	4.17	0
0	404590	4.171	0
0	404688	4.172	0
0	404785	4.173	0
0	404887	4.174	0
0	404982	4.175	1
0	405077	4.176	0
0	405174	4.177	0
0	405274	4.178	1
0	405372	4.179	1
0	405469	4.18	0
0	405563	4.181	1
0	405658	4.182	0
0	405754	4.183	0
0	405852	4.184	0
0	405948	4.185	0
0	406044	4.186	0
0	406139	4.187	0
0	406238	4.188	0
0	406341	4.189	1
0	406439	4.19	0
0	406534	4.191	0
0	406632	4.192	0
0	406731	4.193	0
0	406828	4.194	1
0	406924	4.195	0
0	407022	4.196	1
0	407122	4.197	0
0	407221	4.198	0
0	407315	4.199	0
0	407413	4.2	0
0	407512	4.201	0
0	407608	4.202	0
0	407706	4.203	1
0	407808	4.204	0
0	407906	4.205	0
0	408101	4.207	0
0	408198	4.208	1
0	408291	4.209	0
0	408388	4.21	0
0	408493	4.211	0
0	408589	4.212	0
0	408687	4.213	0
0	408787	4.214	0
0	408883	4.215	0
0	408981	4.216	1
0	409075	4.217	0
0	409172	4.218	0
0	409266	4.219	0
0	409364	4.22	1
0	409462	4.221	0
0	409561	4.222	0
0	409660	4.223	0
0	409855	4.225	1
0	409950	4.226	0
0	410048	4.227	1
0	410145	4.228	0
0	410239	4.229	0
0	410333	4.23	0
0	410430	4.231	1
0	410525	4.232	0
0	410623	4.233	0
0	410719	4.234	0
0	410815	4.235	1
0	410909	4.236	0
0	411007	4.237	0
0	411105	4.238	1
0	411205	4.239	1
0	411301	4.24	0
0	411396	4.241	0
0	411494	4.242	0
0	411593	4.243	1
0	411695	4.244	0
0	411792	4.245	2
0	411887	4.246	0
0	411986	4.247	0
0	412083	4.248	1
0	412183	4.249	0
0	412282	4.25	0
0	412374	4.251	0
0	412473	4.252	0
0	412570	4.253	0
0	412759	4.255	0
0	412857	4.256	0
0	412952	4.257	0
0	413045	4.258	0
0	413141	4.259	0
0	413239	4.26	0
0	413335	4.261	0
0	413434	4.262	0
0	413531	4.263	1
0	413627	4.264	0
0	413725	4.265	0
0	413820	4.266	0
0	413920	4.267	0
0	414118	4.269	0
0	414214	4.27	1
0	414309	4.271	0
0	414411	4.272	1
0	414510	4.273	2
0	414608	4.274	0
0	414700	4.275	0
0	414798	4.276	1
0	414894	4.277	0
0	414990	4.278	0
0	415085	4.279	0
0	415188	4.28	0
0	415287	4.281	0
0	415383	4.282	0
0	415481	4.283	0
0	415581	4.284	0
0	415675	4.285	0
0	415772	4.286	0
0	415868	4.287	0
0	415964	4.288	0
0	416060	4.289	0
0	416154	4.29	0
0	416250	4.291	0
0	416347	4.292	1
0	416443	4.293	0
0	416536	4.294	0
0	416631	4.295	0
0	416728	4.296	0
0	416828	4.297	0
0	416927	4.298	0
0	417019	4.299	1
0	417114	4.3	0
0	417214	4.301	0
0	417315	4.302	0
0	417412	4.303	0
0	417508	4.304	0
0	417600	4.305	0
0	417694	4.306	0
0	417791	4.307	1
0	417890	4.308	0
0	417986	4.309	1
0	418087	4.31	2
0	418180	4.311	2
0	418281	4.312	0
0	418377	4.313	0
0	418473	4.314	0
0	418566	4.315	1
0	418665	4.316	2
0	418758	4.317	0
0	418857	4.318	0
0	418951	4.319	0
0	419053	4.32	0
0	419151	4.321	0
0	419350	4.323	0
0	419452	4.324	0
0	419553	4.325	0
0	419651	4.326	0
0	419747	4.327	0
0	419847	4.328	0
0	419947	4.329	0
0	420043	4.33	0
0	420240	4.332	0
0	420334	4.333	0
0	420431	4.334	0
0	420527	4.335	0
0	420620	4.336	0
0	420719	4.337	0
0	420815	4.338	1
0	421016	4.34	1
0	421110	4.341	0
0	421204	4.342	0
0	421299	4.343	0
0	421395	4.344	0
0	421495	4.345	0
0	421590	4.346	0
0	421686	4.347	0
0	421788	4.348	0
0	421888	4.349	1
0	421988	4.35	0
0	422085	4.351	0
0	422180	4.352	0
0	422275	4.353	0
0	422374	4.354	0
0	422472	4.355	0
0	422566	4.356	0
0	422661	4.357	0
0	422760	4.358	0
0	422856	4.359	0
0	422951	4.36	0
0	423046	4.361	0
0	423143	4.362	0
0	423241	4.363	1
0	423338	4.364	1
0	423437	4.365	0
0	423534	4.366	1
0	423635	4.367	0
0	423728	4.368	0
0	423824	4.369	0
0	423919	4.37	0
0	424014	4.371	0
0	424110	4.372	1
0	424206	4.373	0
0	424301	4.374	0
0	424397	4.375	0
0	424491	4.376	2
0	424588	4.377	0
0	424690	4.378	0
0	424786	4.379	1
0	424881	4.38	0
0	424979	4.381	0
0	425076	4.382	0
0	425173	4.383	0
0	425267	4.384	0
0	425367	4.385	0
0	425467	4.386	0
0	425566	4.387	0
0	425665	4.388	0
0	425761	4.389	0
0	425855	4.39	0
0	425950	4.391	0
0	426042	4.392	1
0	426138	4.393	1
0	426233	4.394	1
0	426329	4.395	0
0	426425	4.396	0
0	426523	4.397	1
0	426618	4.398	0
0	426715	4.399	0
0	426809	4.4	0
0	426910	4.401	0
0	427006	4.402	1
0	427099	4.403	1
0	427195	4.404	0
0	427293	4.405	0
0	427394	4.406	1
0	427489	4.407	0
0	427593	4.408	0
0	427686	4.409	0
0	427783	4.41	0
0	427884	4.411	0
0	427983	4.412	0
0	428080	4.413	0
0	428175	4.414	0
0	428275	4.415	0
0	428374	4.416	0
0	428471	4.417	0
0	428568	4.418	1
0	428761	4.42	1
0	428856	4.421	0
0	428953	4.422	1
0	429051	4.423	0
0	429148	4.424	1
0	429245	4.425	0
0	429342	4.426	0
0	429439	4.427	0
0	429536	4.428	0
0	429637	4.429	0
0	429730	4.43	0
0	429828	4.431	1
0	429925	4.432	0
0	430026	4.433	0
0	430123	4.434	0
0	430219	4.435	0
0	430318	4.436	0
0	430413	4.437	0
0	430511	4.438	0
0	430607	4.439	0
0	430703	4.44	0
0	430800	4.441	0
0	430894	4.442	0
0	430989	4.443	0
0	431089	4.444	0
0	431188	4.445	0
0	431283	4.446	0
0	431380	4.447	0
0	431475	4.448	1
0	431571	4.449	0
0	431667	4.45	1
0	431761	4.451	0
0	431857	4.452	0
0	431953	4.453	1
0	432053	4.454	0
0	432150	4.455	0
0	432251	4.456	0
0	432346	4.457	0
0	432443	4.458	0
0	432543	4.459	1
0	432647	4.46	0
0	432750	4.461	0
0	432843	4.462	0
0	432938	4.463	0
0	433038	4.464	0
0	433136	4.465	0
0	433235	4.466	0
0	433332	4.467	0
0	433429	4.468	0
0	433524	4.469	0
0	433618	4.47	0
0	433718	4.471	0
0	433815	4.472	1
0	433909	4.473	0
0	434005	4.474	0
0	434102	4.475	0
0	434200	4.476	1
0	434299	4.477	0
0	434395	4.478	0
0	434489	4.479	1
0	434681	4.481	0
0	434785	4.482	1
0	434884	4.483	0
0	434979	4.484	0
0	435072	4.485	0
0	435169	4.486	0
0	435265	4.487	0
0	435362	4.488	0
0	435462	4.489	1
0	435665	4.491	1
0	435762	4.492	0
0	435853	4.493	0
0	435952	4.494	0
0	436046	4.495	0
0	436242	4.497	1
0	436341	4.498	0
0	436435	4.499	0
0	436534	4.5	0
0	436632	4.501	0
0	436724	4.502	0
0	436818	4.503	1
0	436914	4.504	0
0	437011	4.505	0
0	437105	4.506	0
0	437202	4.507	0
0	437301	4.508	1
0	437398	4.509	0
0	437493	4.51	0
0	437587	4.511	0
0	437684	4.512	1
0	437778	4.513	0
0	437873	4.514	0
0	437968	4.515	1
0	438065	4.516	0
0	438160	4.517	0
0	438256	4.518	0
0	438349	4.519	0
0	438446	4.52	0
0	438548	4.521	1
0	438645	4.522	1
0	438737	4.523	0
0	438833	4.524	0
0	438928	4.525	0
0	439022	4.526	0
0	439118	4.527	0
0	439213	4.528	0
0	439309	4.529	0
0	439407	4.53	0
0	439501	4.531	1
0	439595	4.532	1
0	439689	4.533	0
0	439784	4.534	0
0	439883	4.535	0
0	439978	4.536	0
0	440074	4.537	0
0	440174	4.538	1
0	440271	4.539	0
0	440368	4.54	0
0	440466	4.541	0
0	440562	4.542	0
0	440657	4.543	0
0	440752	4.544	1
0	440849	4.545	1
0	440945	4.546	0
0	441042	4.547	1
0	441144	4.548	0
0	441240	4.549	0
0	441337	4.55	0
0	441431	4.551	0
0	441628	4.553	1
0	441724	4.554	0
0	441821	4.555	0
0	441917	4.556	0
0	442013	4.557	0
0	442111	4.558	0
0	442208	4.559	0
0	442302	4.56	0
0	442401	4.561	0
0	442499	4.562	0
0	442595	4.563	0
0	442690	4.564	0
0	442786	4.565	0
0	442881	4.566	0
0	442979	4.567	0
0	443078	4.568	0
0	443177	4.569	1
0	443272	4.57	0
0	443369	4.571	0
0	443466	4.572	1
0	443566	4.573	0
0	443761	4.575	0
0	443856	4.576	1
0	443952	4.577	0
0	444059	4.578	1
0	444155	4.579	0
0	444248	4.58	0
0	444345	4.581	0
0	444442	4.582	0
0	444538	4.583	0
0	444634	4.584	0
0	444733	4.585	0
0	444829	4.586	0
0	444923	4.587	0
0	445121	4.589	0
0	445218	4.59	0
0	445311	4.591	0
0	445412	4.592	0
0	445510	4.593	0
0	445607	4.594	0
0	445707	4.595	0
0	445804	4.596	0
0	445897	4.597	0
0	445993	4.598	0
0	446089	4.599	0
0	446187	4.6	0
0	446283	4.601	0
0	446379	4.602	0
0	446478	4.603	0
0	446578	4.604	0
0	446672	4.605	0
0	446768	4.606	0
0	446862	4.607	0
0	446958	4.608	1
0	447055	4.609	0
0	447155	4.61	0
0	447251	4.611	1
0	447349	4.612	0
0	447449	4.613	1
0	447547	4.614	0
0	447643	4.615	0
0	447741	4.616	0
0	447837	4.617	0
0	447938	4.618	0
0	448034	4.619	0
0	448136	4.62	1
0	448235	4.621	0
0	448331	4.622	0
0	448530	4.624	0
0	448630	4.625	1
0	448728	4.626	1
0	448923	4.628	1
0	449025	4.629	0
0	449122	4.63	1
0	449222	4.631	0
0	449314	4.632	0
0	449415	4.633	2
0	449506	4.634	0
0	449607	4.635	1
0	449701	4.636	1
0	449799	4.637	1
0	449895	4.638	1
0	449993	4.639	0
0	450087	4.64	0
0	450284	4.642	0
0	450379	4.643	0
0	450473	4.644	0
0	450571	4.645	0
0	450671	4.646	0
0	450768	4.647	0
0	450871	4.648	0
0	450973	4.649	0
0	451069	4.65	0
0	451166	4.651	0
0	451263	4.652	1
0	451357	4.653	0
0	451453	4.654	0
0	451547	4.655	0
0	451643	4.656	1
0	451738	4.657	0
0	451836	4.658	1
0	451934	4.659	0
0	452030	4.66	0
0	452129	4.661	0
0	452223	4.662	0
0	452323	4.663	1
0	452418	4.664	1
0	452515	4.665	0
0	452612	4.666	0
0	452707	4.667	0
0	452803	4.668	0
0	452897	4.669	0
0	452995	4.67	0
0	453090	4.671	0
0	453184	4.672	0
0	453280	4.673	0
0	453376	4.674	0
0	453476	4.675	0
0	453572	4.676	0
0	453668	4.677	0
0	453765	4.678	0
0	453861	4.679	0
0	453957	4.68	0
0	454052	4.681	0
0	454150	4.682	1
0	454248	4.683	0
0	454345	4.684	0
0	454442	4.685	0
0	454541	4.686	0
0	454641	4.687	1
0	454740	4.688	2
0	454837	4.689	1
0	454931	4.69	0
0	455031	4.691	0
0	455133	4.692	0
0	455233	4.693	1
0	455328	4.694	0
0	455422	4.695	0
0	455521	4.696	0
0	455618	4.697	0
0	455714	4.698	0
0	455813	4.699	0
0	455907	4.7	0
0	456003	4.701	0
0	456096	4.702	0
0	456191	4.703	0
0	456285	4.704	0
0	456380	4.705	0
0	456472	4.706	0
0	456571	4.707	1
0	456666	4.708	0
0	456865	4.71	1
0	456964	4.711	0
0	457060	4.712	1
0	457158	4.713	0
0	457254	4.714	1
0	457347	4.715	0
0	457448	4.716	0
0	457541	4.717	0
0	457638	4.718	0
0	457736	4.719	1
0	457832	4.72	1
0	457931	4.721	2
0	458028	4.722	0
0	458126	4.723	0
0	458222	4.724	0
0	458317	4.725	0
0	458417	4.726	0
0	458512	4.727	0
0	458607	4.728	0
0	458699	4.729	0
0	458795	4.73	0
0	458894	4.731	0
0	459094	4.733	0
0	459189	4.734	0
0	459285	4.735	0
0	459379	4.736	0
0	459480	4.737	0
0	459576	4.738	0
0	459674	4.739	0
0	459770	4.74	0
0	459866	4.741	0
0	459961	4.742	0
0	460059	4.743	1
0	460159	4.744	0
0	460254	4.745	0
0	460348	4.746	0
0	460448	4.747	3
0	460543	4.748	1
0	460640	4.749	0
0	460737	4.75	0
0	460832	4.751	0
0	460925	4.752	0
0	461022	4.753	0
0	461117	4.754	0
0	461213	4.755	0
0	461314	4.756	1
0	461412	4.757	0
0	461513	4.758	0
0	461609	4.759	2
0	461708	4.76	1
0	461803	4.761	0
0	461999	4.763	1
0	462096	4.764	1
0	462197	4.765	0
0	462388	4.767	1
0	462490	4.768	1
0	462584	4.769	0
0	462684	4.77	0
0	462782	4.771	0
0	462880	4.772	0
0	462973	4.773	0
0	463070	4.774	0
0	463167	4.775	0
0	463261	4.776	0
0	463357	4.777	0
0	463451	4.778	0
0	463545	4.779	0
0	463640	4.78	0
0	463738	4.781	0
0	463837	4.782	0
0	463934	4.783	1
0	464029	4.784	0
0	464133	4.785	0
0	464225	4.786	0
0	464320	4.787	0
0	464416	4.788	0
0	464513	4.789	0
0	464610	4.79	1
0	464707	4.791	0
0	464805	4.792	0
0	464905	4.793	0
0	465003	4.794	0
0	465106	4.795	0
0	465206	4.796	0
0	465302	4.797	1
0	465397	4.798	0
0	465493	4.799	1
0	465590	4.8	0
0	465686	4.801	0
0	465781	4.802	0
0	465878	4.803	0
0	465977	4.804	0
0	466074	4.805	0
0	466170	4.806	0
0	466263	4.807	0
0	466362	4.808	0
0	466455	4.809	0
0	466551	4.81	1
0	466643	4.811	0
0	466741	4.812	0
0	466842	4.813	1
0	466941	4.814	0
0	467044	4.815	1
0	467141	4.816	1
0	467239	4.817	0
0	467336	4.818	0
0	467431	4.819	0
0	467524	4.82	1
0	467623	4.821	0
0	467718	4.822	0
[...]
60	162471	1.675	2.0249926e-005
60	162859	1.679	0.000565798648
60	163523	1.686	0.00038074196
60	164302	1.694	0.000793475117
60	164683	1.698	1.6363688e-005
60	165072	1.702	0.00060333221
60	165554	1.707	0.000634564994
60	166043	1.712	1.426635e-005
60	166234	1.714	0.000670678806
60	166332	1.715	0.000762161389
60	166433	1.716	0.000838692107
60	167114	1.723	0.000744032155
60	167212	1.724	0.00095198279
60	167596	1.728	6.171005e-005
60	167694	1.729	0.000840156437
60	168181	1.734	0.00224607014
60	168181	1.734	0.000708036649
60	168562	1.738	0.000613267466
60	168661	1.739	0.000140075506
60	169252	1.745	0.000408737994
60	169252	1.745	7.3993675e-005
60	169449	1.747	0.000201764976
60	169547	1.748	0.000798080166
60	170226	1.755	0.001110417653
60	170226	1.755	0.000874140036
60	170428	1.757	0.000788897778
60	171010	1.763	0.001283937444
60	171108	1.764	0.000775862957
60	172265	1.776	0.00073502559
60	173445	1.788	0.000583443061
60	173739	1.791	0.000226338052
60	173838	1.792	0.000155196736
60	173935	1.793	0.000129406476
60	174036	1.794	0.000751215264
60	174134	1.795	0.000469875547
60	174613	1.8	0.000230984431
60	175203	1.806	0.000642555689
60	175499	1.809	0.000722450304
60	175499	1.809	9.912333e-005
60	176076	1.815	0.000696612777
60	176561	1.82	0.000482516536
60	176660	1.821	0.00058289064
60	176755	1.822	0.000654339048
60	176950	1.824	0.000754181883
60	177147	1.826	0.001281775589
60	177735	1.832	9.696278e-006
60	177930	1.834	0.000830068231
60	178418	1.839	0.000607946623
60	178998	1.845	0.000223396948
60	179775	1.853	0.001815761059
60	179875	1.854	0.002457368144
60	180463	1.86	0.00030934545
60	181816	1.874	0.000671573145
60	182299	1.879	0.001951131879
60	183072	1.887	0.000423279982
60	183356	1.89	0.000737176745
60	183648	1.893	9.338842e-006
60	184432	1.901	4.3386213e-005
60	185018	1.907	0.000976108594
60	187048	1.928	0.000947582056
60	187628	1.934	0.000126755084
60	187826	1.936	0.001188996511
60	188407	1.942	0.000172506668
60	188407	1.942	7.6319281e-005
60	190452	1.963	0.000638516619
60	190740	1.966	0.000688210298
60	191130	1.97	0.003445633169
60	191708	1.976	0.001163422931
60	192576	1.985	0.000720096619
60	192769	1.987	0.000123927612
60	193842	1.998	0.000942985055
60	194630	2.006	0.000609778677
60	194922	2.009	0.000212487636
60	195209	2.012	0.000643135807
60	195307	2.013	0.000376960817
60	195405	2.014	0.000794896514
60	195507	2.015	0.000665385111
60	196178	2.022	0.000314580116
60	197441	2.035	0.000141163975
60	197441	2.035	3.9099951e-005
60	197931	2.04	0.002327204048
60	198023	2.041	0.000536997974
60	198217	2.043	0.000644352181
60	198411	2.045	0.001068791752
60	198508	2.046	0.000488794389
60	199280	2.054	0.000928170725
60	202399	2.086	0.000509942396
60	202589	2.088	0.000791304751
60	203076	2.093	0.000777091937
60	204058	2.103	0.001904270243
60	204249	2.105	0.00078311341
60	205216	2.115	0.00031990522
60	205503	2.118	0.001183773133
60	206862	2.132	0.000715850713
60	207354	2.137	0.000541951157
60	207742	2.141	0.001064013312
60	208030	2.144	0.000161144901
60	208514	2.149	0.000864587523
60	209979	2.164	0.000349088801
60	210365	2.168	0.000391286802
60	210365	2.168	0.000304164414
60	211045	2.175	0.000531100206
60	212208	2.187	0.000950286666
60	212304	2.188	0.001206810658
60	213179	2.197	0.00079454173
60	213373	2.199	0.000337146595
60	213759	2.203	0.001767186257
60	213856	2.204	6.6655104e-005
60	213952	2.205	8.8748655e-005
60	214146	2.207	0.000210008913
60	214823	2.214	0.000721154823
60	214918	2.215	3.3785511e-005
60	215018	2.216	0.000957999213
60	215792	2.224	0.000678550119
60	215987	2.226	3.9214759e-005
60	216758	2.234	0.000973526875
60	217340	2.24	0.000141132629
60	218793	2.255	0.00070019427
60	220926	2.277	0.001396641931
60	220926	2.277	0.000333240549
60	221412	2.282	0.000585151881
60	221992	2.288	0.000731981538
60	224119	2.31	0.000902034473
60	224217	2.311	0.001516701964
60	225278	2.322	0.000964752019
60	226821	2.338	0.000997688384
60	227297	2.343	0.000592301637
60	227677	2.347	0.000924084891
60	227875	2.349	0.000213228691
60	228266	2.353	0.000379457879
60	228562	2.356	0.001775303121
60	228764	2.358	0.000393367114
60	228863	2.359	0.000941938601
60	229261	2.363	6.1198907e-005
60	229554	2.366	0.000940230772
60	229554	2.366	0.000375885992
60	230336	2.374	0.000120820751
60	230629	2.377	0.000400215076
60	230917	2.38	0.000847068474
60	231210	2.383	0.0005982562
60	232083	2.392	0.002404306766
60	232569	2.397	0.001224370588
60	232867	2.4	0.000573682628
60	233445	2.406	1.8825965e-005
60	233732	2.409	0.000589359012
60	234506	2.417	0.000897191343
60	236141	2.434	0.001924323719
60	236433	2.437	0.000523018982
60	237023	2.443	0.000795324638
60	237221	2.445	9.1153538e-005
60	237413	2.447	0.000962339651
60	237902	2.452	0.000343089645
60	238293	2.456	0.000948416233
60	238390	2.457	0.000985465085
60	238683	2.46	0.000418748399
60	239062	2.464	0.000318576539
60	240127	2.475	0.001937232955
60	240316	2.477	0.003793920167
60	240414	2.478	0.000359877523
60	240986	2.484	0.000548536531
60	241176	2.486	0.000486413258
60	241663	2.491	0.001059169596
60	242245	2.497	0.000618638189
60	242442	2.499	0.001602373479
60	242442	2.499	0.001529196987
60	242635	2.501	0.000480834058
60	242732	2.502	0.000556299582
60	243596	2.511	0.001552716791
60	243596	2.511	0.000610528651
60	244958	2.525	0.001876715861
60	245725	2.533	0.00088523651
60	247358	2.55	0.00024656898
60	247556	2.552	0.000538733234
60	248334	2.56	0.000990553702
60	248726	2.564	0.000705824155
60	249023	2.567	0.00026808835
60	249610	2.573	0.000908840693
60	249610	2.573	0.000848125973
60	250488	2.582	0.000788042464
60	251637	2.594	0.000605294316
60	253213	2.61	0.000554343925
60	253697	2.615	0.000969708841
60	254177	2.62	0.000394858291
60	254276	2.621	0.000255946127
60	254477	2.623	0.000408922341
60	254669	2.625	0.000781989533
60	255157	2.63	6.0703616e-005
60	255352	2.632	0.000588259455
60	255649	2.635	0.001196136014
60	255747	2.636	0.000712600195
60	255946	2.638	0.000446121164
60	256144	2.64	0.000574752285
60	256438	2.643	0.000310015117
60	257209	2.651	3.6006967e-005
60	257302	2.652	0.000982869974
60	257399	2.653	2.1967066e-005
60	258562	2.665	0.000486208971
60	259246	2.672	3.6916388e-005
60	259246	2.672	6.865444e-006
60	259637	2.676	0.000388137454
60	260121	2.681	0.000544115621
60	260606	2.686	1.5540801e-005
60	260701	2.687	0.000840792747
60	261949	2.7	0.000560826286
60	262047	2.701	0.000610056375
60	262532	2.706	0.000383484384
60	263012	2.711	0.000666238013
60	263876	2.72	0.000286538401
60	263876	2.72	2.6651755e-005
60	264455	2.726	6.3318926e-005
60	264655	2.728	0.000149687857
60	264847	2.73	0.000613223365
60	265042	2.732	7.0095056e-005
60	265137	2.733	0.00086777416
60	265329	2.735	0.000933078313
60	265809	2.74	0.000548439097
60	266970	2.752	0.000374320134
60	267069	2.753	0.000729696411
60	267069	2.753	0.000201662589
60	267642	2.759	0.000381465029
60	268025	2.763	0.000899820709
60	268416	2.767	0.001036637251
60	268801	2.771	0.000506771053
60	269089	2.774	0.00073025157
60	269965	2.783	0.001291794272
60	269965	2.783	0.000161633981
60	270938	2.793	0.000813961818
60	272485	2.809	0.000150898775
60	272682	2.811	0.000416405692
60	273159	2.816	0.000976469241
60	273547	2.82	0.000941252973
60	273547	2.82	0.000181831517
60	273547	2.82	4.3886432e-005
60	273743	2.822	0.000130878753
60	275393	2.839	0.000908101211
60	275786	2.843	0.000490024596
60	275972	2.845	5.1306365e-005
60	276552	2.851	0.000580638324
60	276939	2.855	5.9472796e-005
60	277132	2.857	0.000680249794
60	277816	2.864	0.00029160525
60	278963	2.876	0.000606534573
60	279255	2.879	0.000767378931
60	280230	2.889	4.7399759e-005
60	280913	2.896	0.000759294903
60	281211	2.899	0.000547203083
60	281399	2.901	0.000812421035
60	282367	2.911	0.000184913657
60	283915	2.927	0.000991316344
60	284601	2.934	0.000192052253
60	285083	2.939	0.000681928205
60	285180	2.94	0.000896016063
60	286150	2.95	2.7650478e-005
60	286539	2.954	0.000986124556
60	287699	2.966	0.000498870165
60	288286	2.972	0.000425741716
60	289078	2.98	0.001276260714
60	290444	2.994	0.000985836721
60	290731	2.997	0.00012180422
60	290922	2.999	0.000502662191
60	291023	3	0.000966024666
60	291709	3.007	0.000152888515
60	292372	3.014	0.00031578827
60	292469	3.015	0.000914839873
60	292660	3.017	0.000222525766
60	293243	3.023	0.000525272772
60	293339	3.024	0.000779806896
60	293627	3.027	0.000751012519
60	294199	3.033	0.000578760702
60	294674	3.038	0.000713074514
60	295663	3.048	0.000982170387
60	295855	3.05	0.000730935622
60	296432	3.056	0.000431623463
60	296722	3.059	0.000924538167
60	297014	3.062	0.000260980259
60	297203	3.064	0.00011069227
60	297397	3.066	0.000365652177
60	297696	3.069	0.000356273572
60	298486	3.077	0.00106659022
60	298782	3.08	0.000324886412
60	298881	3.081	0.0003242591
60	299080	3.083	0.00025284807
60	299462	3.087	0.000505092528
60	300435	3.097	0.000151512552
60	301403	3.107	0.000400337865
60	303332	3.127	0.000786162077
60	303526	3.129	0.000863331301
60	304594	3.14	0.0009189736
60	304789	3.142	0.000464940851
60	304789	3.142	0.000345918693
60	305277	3.147	0.000839376754
60	305277	3.147	0.00053592894
60	305661	3.151	7.1167773e-005
60	305952	3.154	0.000618904107
60	306429	3.159	0.000895352948
60	306624	3.161	0.001607579217
60	307017	3.165	0.000801781257
60	307305	3.168	0.000953463637
60	307885	3.174	0.000534406278
60	308475	3.18	0.002148559027
60	308572	3.181	0.00225892982
60	308765	3.183	6.668679e-006
60	311581	3.212	5.6339201e-005
60	312064	3.217	0.00057488256
60	312257	3.219	0.000443670799
60	312550	3.222	0.00045693267
60	314203	3.239	1.3082444e-005
60	314595	3.243	5.6873532e-005
60	315289	3.25	0.000554852423
60	315388	3.251	0.000441395485
60	316257	3.26	0.001339109098
60	316650	3.264	0.000927771415
60	316847	3.266	0.000112210056
60	317134	3.269	0.000309938455
60	318398	3.282	0.00042264336
60	318590	3.284	0.0004858168
60	319068	3.289	0.000805089143
60	319738	3.296	0.000834197692
60	320121	3.3	0.000251769721
60	320316	3.302	0.000811647303
60	320316	3.302	0.00068652083
60	320510	3.304	0.000822423115
60	321568	3.315	0.000313646058
60	323215	3.332	0.001959588662
60	323215	3.332	0.00158162041
60	324274	3.343	0.000241367494
60	325053	3.351	0.000339262869
60	325734	3.358	0.00130570363
60	326314	3.364	0.000213026868
60	326801	3.369	0.000268541666
60	326897	3.37	0.000991954472
60	326994	3.371	0.000808496576
60	328060	3.382	0.000152320665
60	328359	3.385	5.3009533e-005
60	328747	3.389	0.000408440718
60	328843	3.39	0.000670316844
60	329430	3.396	7.9265997e-005
60	330209	3.404	0.000230974941
60	331072	3.413	0.00019398415
60	331169	3.414	0.000109944157
60	332821	3.431	0.000217749461
60	333115	3.434	0.00020905857
60	333216	3.435	0.00078968619
60	333313	3.436	0.000493566826
60	334772	3.451	0.000618339598
60	334869	3.452	0.00019177679
60	335551	3.459	7.3797516e-005
60	336328	3.467	0.000564875175
60	336521	3.469	0.000620159314
60	339625	3.501	0.000868296969
60	340793	3.513	0.00093774964
60	341276	3.518	0.001880409006
60	341374	3.519	0.000779337275
60	341567	3.521	0.000773854079
60	341664	3.522	0.000514851216
60	341763	3.523	0.00013602439
60	342056	3.526	0.000224971269
60	342251	3.528	0.00034689542
60	342251	3.528	0.000160911372
60	342540	3.531	0.00022310122
60	342731	3.533	0.001430920084
60	343220	3.538	0.000559147084
60	344381	3.55	0.000420294276
60	344673	3.553	0.000345269726
60	345634	3.563	0.000436076232
60	346990	3.577	0.000458845494
60	346990	3.577	0.000380704752
60	347383	3.581	0.000670837314
60	347478	3.582	0.000257281588
60	347962	3.587	0.000555024616
60	348159	3.589	0.000259824821
60	348650	3.594	0.000936566573
60	348650	3.594	0.000493981631
60	348650	3.594	0.000472063755
60	349131	3.599	0.000502219605
60	349231	3.6	0.000612210646
60	349330	3.601	0.000795017615
60	349526	3.603	0.000385815871
60	350006	3.608	0.001105912317
60	350400	3.612	0.000861041103
60	350400	3.612	0.000507329423
60	350499	3.613	0.000212277238
60	350595	3.614	0.000776285253
60	350795	3.616	0.000559498054
60	351956	3.628	0.000249742417
60	352051	3.629	0.000780760013
60	352732	3.636	0.000618253478
60	352830	3.637	0.000186634565
60	353222	3.641	0.000523571144
60	354514	3.654	0.000407605486
60	355480	3.664	0.000195962785
60	356440	3.674	0.000758391799
60	356636	3.676	5.1798505e-005
60	356825	3.678	8.5696521e-005
60	357104	3.681	0.000458658879
60	357488	3.685	0.000621297923
60	357775	3.688	0.001238163799
60	358555	3.696	0.000742235914
60	359733	3.708	9.7132373e-005
60	360711	3.718	0.000862290127
60	360808	3.719	0.000697467673
60	361190	3.723	0.000326737808
60	361290	3.724	0.000438501791
60	361290	3.724	0.00031563314
60	362154	3.733	7.1243526e-005
60	362830	3.74	0.000650959858
60	363117	3.743	0.000803674713
60	363704	3.749	0.000324503561
60	365163	3.764	0.000274024614
60	365839	3.771	0.000819423833
60	366813	3.781	0.000661632661
60	367202	3.785	0.000647372272
60	367202	3.785	0.000588437436
60	367595	3.789	0.000971766869
60	368561	3.799	0.001131762456
60	368561	3.799	0.000407032839
60	369245	3.806	0.000141279388
60	370499	3.819	0.000541873591
60	370792	3.822	0.000970679805
60	370792	3.822	0.000308180531
60	370884	3.823	0.000452951629
60	371365	3.828	4.649163e-006
60	371854	3.833	0.000324496602
60	372535	3.84	0.000525501744
60	372631	3.841	0.000932639006
60	372631	3.841	0.00086182141
60	372828	3.843	0.000790979993
60	373997	3.855	0.000551193106
60	375838	3.874	0.000735854325
60	376126	3.877	0.000731268633
60	377092	3.887	0.000165100099
60	378065	3.897	0.000755426024
60	378261	3.899	0.000615668104
60	378363	3.9	0.000551882358
60	379039	3.907	0.000130623101
60	379137	3.908	0.000511088451
60	379239	3.909	0.000272197799
60	379431	3.911	0.000588307887
60	380305	3.92	0.000492331834
60	380987	3.927	0.000308150767
60	381082	3.928	0.000482045697
60	381282	3.93	0.0012128344
60	382346	3.941	0.001892622021
60	382346	3.941	0.000292261423
60	382538	3.943	0.000458653316
60	382728	3.945	0.000632716858
60	382921	3.947	4.5605531e-005
60	383308	3.951	0.000712666978
60	383599	3.954	0.000447169235
60	383599	3.954	0.000409486245
60	383888	3.957	0.000412797006
60	384085	3.959	0.001548069162
60	384085	3.959	0.001317262151
60	384184	3.96	0.000426733948
60	384951	3.968	0.001226482472
60	385240	3.971	0.001264872044
60	385435	3.973	0.000257803599
60	386772	3.987	0.000234704167
60	387056	3.99	0.000892627629
60	387252	3.992	0.000521334681
60	387252	3.992	0.000226760952
60	387648	3.996	0.000425572743
60	387844	3.998	3.785003e-005
60	388812	4.008	1.4693113e-005
60	389199	4.012	0.000891856509
60	389688	4.017	0.001030547898
60	389878	4.019	0.000350723465
60	390550	4.026	0.000215653975
60	390842	4.029	0.000741508262
60	390842	4.029	0.000490561449
60	390842	4.029	0.000474391967
60	391035	4.031	0.000570044057
60	391325	4.034	0.000607199866
60	391617	4.037	0.000983302749
60	392109	4.042	0.00058663382
60	392973	4.051	0.000102812162
60	393071	4.052	0.000503581471
60	394988	4.072	0.000878311967
60	395855	4.081	0.000523638212
60	395953	4.082	0.000503041662
60	397195	4.095	0.0003133204
60	397486	4.098	0.000793381243
60	397681	4.1	0.001599335185
60	397681	4.1	0.001061128965
60	397681	4.1	0.000177912174
60	397878	4.102	0.000845144313
60	397977	4.103	0.000492341626
60	398079	4.104	0.000758428894
60	398673	4.11	0.000846423126
60	399259	4.116	0.001070446812
60	399259	4.116	0.000631297239
60	399454	4.118	0.000354105486
60	399454	4.118	0.000331750345
60	399837	4.122	0.001966013061
60	400136	4.125	0.000339210917
60	400234	4.126	0.000610929369
60	401001	4.134	0.000764672094
60	402361	4.148	0.000516083961
60	403049	4.155	0.000102002445
60	403145	4.156	0.00035305672
60	404898	4.174	0.0004874386
60	405480	4.18	0.000509185149
60	405765	4.183	0.000423352899
60	406249	4.188	0.000500196274
60	407133	4.197	0.000837680043
60	407523	4.201	0.001788126264
60	407619	4.202	9.6716329e-005
60	407819	4.204	6.257606e-006
60	409183	4.218	0.00065160404
60	411604	4.243	0.000407704576
60	412770	4.255	0.00070836385
60	412963	4.257	0.000674651481
60	413250	4.26	0.000813018317
60	413931	4.267	0.000780046252
60	413931	4.267	0.000517585768
60	414129	4.269	0.000360455711
60	414619	4.274	0.000999433006
60	416454	4.293	0.000826242863
60	416642	4.295	0.00035282352
60	418962	4.319	0.000647778562
60	419162	4.321	0.000773957378
60	419361	4.323	0.00044420273
60	419463	4.324	3.5660682e-005
60	419662	4.326	0.000682926452
60	419858	4.328	7.73107e-005
60	420538	4.335	0.000589376289
60	421027	4.34	0.000668565277
60	421027	4.34	0.000664701355
60	421406	4.344	0.000699424017
60	421799	4.348	0.000396651175
60	422191	4.352	0.00080532661
60	422385	4.354	0.000117501353
60	422867	4.359	0.000746368235
60	424599	4.377	0.000171644165
60	425478	4.386	0.000252943125
60	425478	4.386	0.000107800079
60	426726	4.399	8.3352181e-005
60	427304	4.405	0.000160639668
60	427794	4.41	5.485363e-006
60	428385	4.416	5.5274908e-005
60	429648	4.429	0.000361005139
60	429936	4.432	0.000333466213
60	430329	4.436	0.000477502963
60	432761	4.461	0.000301374659
60	433729	4.471	0.000406476383
60	435083	4.485	0.000692330364
60	435373	4.488	0.000571619567
60	435373	4.488	0.000290160708
60	436253	4.497	0.001220839016
60	437409	4.509	0.000809500312
60	437409	4.509	0.000557706076
60	438267	4.518	0.000629412119
60	438939	4.525	0.000970482855
60	439418	4.53	0.000894614954
60	439418	4.53	0.00086773246
60	440282	4.539	0.000744605381
60	442219	4.559	0.000486495194
60	442990	4.567	0.000216536868
60	443380	4.571	0.000741250051
60	443676	4.574	0.000863082579
60	443676	4.574	0.000555050094
60	444070	4.578	0.000173887284
60	444453	4.582	0.00014391913
60	445132	4.589	0.001915577944
60	445229	4.59	0.000622260759
60	445521	4.593	0.000100693339
60	445521	4.593	6.9477125e-005
60	445718	4.595	0.000470748116
60	446390	4.602	0.000681345082
60	446489	4.603	0.000653903692
60	449036	4.629	0.000729578526
60	450195	4.641	0.001273650444
60	450195	4.641	0.000851108554
60	450682	4.646	0.000318196687
60	450682	4.646	4.9145306e-005
60	450882	4.648	0.0006436568
60	451654	4.656	0.000473140907
60	452814	4.668	0.000239293661
60	453487	4.675	0.000933831802
60	454652	4.687	0.000223342568
60	454751	4.688	0.000188168492
60	455042	4.691	0.000742277739
60	456779	4.709	0.000536479108
60	456876	4.71	0.001443434126
60	457649	4.718	0.000262792652
60	457942	4.721	0.000526935152
60	458233	4.724	0.000256337984
60	459296	4.735	0.000612580681
60	459296	4.735	0.00030529034
60	459877	4.741	9.17701e-007
60	460170	4.744	0.000689471665
60	460748	4.75	0.000761038867
60	460748	4.75	0.000673292863
60	461033	4.753	0.000436997473
60	461224	4.755	0.000181293603
60	462501	4.768	0.000987676406
60	462501	4.768	0.000403055668
60	463178	4.775	0.000540076587
60	463368	4.777	0.000175368031
60	464718	4.791	0.000931117758
60	464916	4.793	0.000412388516
60	465014	4.794	0.000929045967
60	466853	4.813	0.000290223059
60	468113	4.826	5.8115125e-005
60	468310	4.828	0.000173145422
60	468406	4.829	0.00060753358
60	469173	4.837	0.000624865504
60	470047	4.846	0.000977965823
60	470526	4.851	0.000312798736
60	471003	4.856	0.000628422683
60	471389	4.86	0.000952991591
60	471389	4.86	0.000335763452
60	471682	4.863	0.00046251232
60	472172	4.868	0.000779905652
60	472364	4.87	0.000553264892
60	472459	4.871	0.000426035655
60	472558	4.872	0.00084291959
60	473153	4.878	0.000878837289
60	473635	4.883	0.000904966382
60	473731	4.884	0.000100519632
60	474309	4.89	0.000593650469
60	474410	4.891	0.000523300574
60	475194	4.899	8.362846e-006
60	475580	4.903	0.000774681914
60	475774	4.905	0.000794907188
60	475969	4.907	0.000329073122
60	477718	4.925	0.000884530381
60	477914	4.927	0.000764576462
60	478583	4.934	0.001492518217
60	478679	4.935	4.1233343e-005
60	478874	4.937	0.00064281037
60	479749	4.946	0.000206798737
60	480237	4.951	0.000844275446
60	480431	4.953	1.68968e-006
60	480624	4.955	0.000748015705
60	480624	4.955	0.000143061937
60	480821	4.957	7.0471495e-005
60	481197	4.961	0.000775167661
60	481197	4.961	0.000763735509
60	481884	4.968	0.000493623837
60	481884	4.968	0.000244496206
60	481884	4.968	6.742735e-006
60	482376	4.973	0.000411125578
60	482569	4.975	0.000696955779
60	483054	4.98	0.000683948738
60	483156	4.981	0.00099494872
60	483349	4.983	0.000784021205
60	483349	4.983	0.000238432023
60	484701	4.997	0.002970697236
60	484985	5	0.000829348048

